
 OpenBabel11301904003D

 44 46  0  0  1  0  0  0  0  0999 V2000
   -0.7564    1.0864    0.2040 C   0  0  1  0  0  0  0  0  0  0  0  0
   -2.2429    0.6353    0.0694 C   0  0  2  0  0  0  0  0  0  0  0  0
   -2.2041   -0.9532    0.0796 C   0  0  1  0  0  0  0  0  0  0  0  0
   -0.8094   -1.2287   -0.0078 N   0  0  0  0  0  0  0  0  0  0  0  0
   -0.0131   -0.1622    0.0588 C   0  0  0  0  0  0  0  0  0  0  0  0
   -2.8510    1.1701    1.2505 O   0  0  0  0  0  0  0  0  0  0  0  0
   -1.9790    1.7575    2.0923 C   0  0  0  0  0  0  0  0  0  0  0  0
   -0.6099    1.7544    1.5957 C   0  0  0  0  0  0  0  0  0  0  0  0
   -2.9180   -1.5894   -1.0676 C   0  0  0  0  0  0  0  0  0  0  0  0
   -2.6913   -1.5947    1.4209 C   0  0  0  0  0  0  0  0  0  0  0  0
   -2.5876   -3.0170    1.4121 O   0  0  0  0  0  0  0  0  0  0  0  0
   -2.9373    1.3206   -1.1531 C   0  0  0  0  0  0  0  0  0  0  0  0
   -0.4526    1.7800   -0.5867 H   0  0  0  0  0  0  0  0  0  0  0  0
   -2.3176    2.2222    3.2045 O   0  0  0  0  0  0  0  0  0  0  0  0
    1.2353   -0.2337    0.0188 O   0  0  0  0  0  0  0  0  0  0  0  0
   -4.1727   -1.5840   -1.0904 O   0  0  0  0  0  0  0  0  0  0  0  0
   -2.2211   -2.1792   -2.0884 O   0  0  0  0  0  0  0  0  0  0  0  0
   -2.7917   -2.7105   -3.2872 C   0  0  0  0  0  0  0  0  0  0  0  0
   -1.7390   -3.3743   -4.0866 C   0  0  0  0  0  0  0  0  0  0  0  0
   -1.0199   -2.6625   -5.0746 C   0  0  0  0  0  0  0  0  0  0  0  0
   -0.0964   -3.3264   -5.9021 C   0  0  0  0  0  0  0  0  0  0  0  0
    0.1275   -4.7094   -5.7484 C   0  0  0  0  0  0  0  0  0  0  0  0
   -0.5301   -5.4082   -4.7168 C   0  0  0  0  0  0  0  0  0  0  0  0
   -1.4514   -4.7444   -3.8881 C   0  0  0  0  0  0  0  0  0  0  0  0
    0.9753   -5.3713   -6.5935 O   0  0  0  0  0  0  0  0  0  0  0  0
    0.2821   -5.8962   -7.7410 C   0  0  0  0  0  0  0  0  0  0  0  0
   -0.4586   -2.1313   -0.0904 H   0  0  0  0  0  0  0  0  0  0  0  0
    0.0331    1.1914    2.2780 H   0  0  0  0  0  0  0  0  0  0  0  0
   -0.2438    2.7794    1.5150 H   0  0  0  0  0  0  0  0  0  0  0  0
   -3.7341   -1.3280    1.6070 H   0  0  0  0  0  0  0  0  0  0  0  0
   -2.0962   -1.2276    2.2604 H   0  0  0  0  0  0  0  0  0  0  0  0
   -2.9367   -3.3021    2.2839 H   0  0  0  0  0  0  0  0  0  0  0  0
   -2.8479    2.4081   -1.0887 H   0  0  0  0  0  0  0  0  0  0  0  0
   -2.4791    0.9932   -2.0910 H   0  0  0  0  0  0  0  0  0  0  0  0
   -4.0013    1.0762   -1.1736 H   0  0  0  0  0  0  0  0  0  0  0  0
   -3.5872   -3.4214   -3.0471 H   0  0  0  0  0  0  0  0  0  0  0  0
   -3.2446   -1.8923   -3.8532 H   0  0  0  0  0  0  0  0  0  0  0  0
   -1.1736   -1.6597   -5.2070 H   0  0  0  0  0  0  0  0  0  0  0  0
    0.4020   -2.8048   -6.6267 H   0  0  0  0  0  0  0  0  0  0  0  0
   -0.3498   -6.4050   -4.5785 H   0  0  0  0  0  0  0  0  0  0  0  0
   -1.9231   -5.2715   -3.1488 H   0  0  0  0  0  0  0  0  0  0  0  0
   -0.4943   -6.6095   -7.4499 H   0  0  0  0  0  0  0  0  0  0  0  0
    1.0060   -6.4193   -8.3642 H   0  0  0  0  0  0  0  0  0  0  0  0
   -0.1652   -5.0954   -8.3362 H   0  0  0  0  0  0  0  0  0  0  0  0
  1  2  1  6  0  0  0
  1  8  1  0  0  0  0
  2  3  1  6  0  0  0
  2  6  1  0  0  0  0
  3  9  1  6  0  0  0
  3 10  1  0  0  0  0
  4  5  1  0  0  0  0
  4  3  1  0  0  0  0
  5  1  1  0  0  0  0
  6  7  1  0  0  0  0
  7 14  2  0  0  0  0
  8  7  1  0  0  0  0
  8 28  1  0  0  0  0
 10 30  1  0  0  0  0
 10 31  1  0  0  0  0
 11 10  1  0  0  0  0
 11 32  1  0  0  0  0
 12 33  1  0  0  0  0
 12  2  1  0  0  0  0
 13  1  1  0  0  0  0
 15  5  2  0  0  0  0
 16  9  2  0  0  0  0
 17  9  1  0  0  0  0
 18 36  1  0  0  0  0
 18 17  1  0  0  0  0
 19 24  1  0  0  0  0
 19 18  1  0  0  0  0
 20 19  2  0  0  0  0
 21 22  2  0  0  0  0
 21 20  1  0  0  0  0
 22 23  1  0  0  0  0
 23 40  1  0  0  0  0
 23 24  2  0  0  0  0
 24 41  1  0  0  0  0
 25 22  1  0  0  0  0
 26 42  1  0  0  0  0
 26 25  1  0  0  0  0
 27  4  1  0  0  0  0
 29  8  1  0  0  0  0
 34 12  1  0  0  0  0
 35 12  1  0  0  0  0
 37 18  1  0  0  0  0
 38 20  1  0  0  0  0
 39 21  1  0  0  0  0
 43 26  1  0  0  0  0
 44 26  1  0  0  0  0
M  END
$$$$
