
 OpenBabel11301904003D

 44 46  0  0  1  0  0  0  0  0999 V2000
   -0.9264    1.2335   -0.2348 C   0  0  1  0  0  0  0  0  0  0  0  0
   -2.2367    0.7909    0.4515 C   0  0  1  0  0  0  0  0  0  0  0  0
   -2.1917   -0.7586    0.1277 C   0  0  2  0  0  0  0  0  0  0  0  0
   -0.7662   -0.9530    0.3028 N   0  0  0  0  0  0  0  0  0  0  0  0
   -0.0284    0.1877    0.2234 C   0  0  0  0  0  0  0  0  0  0  0  0
   -3.0735    1.7575   -0.1964 O   0  0  0  0  0  0  0  0  0  0  0  0
   -2.3646    2.9278   -0.3594 C   0  0  0  0  0  0  0  0  0  0  0  0
   -0.9088    2.7640   -0.1166 C   0  0  0  0  0  0  0  0  0  0  0  0
   -2.9800   -1.5826    1.0987 C   0  0  0  0  0  0  0  0  0  0  0  0
   -2.6646   -1.1730   -1.3164 C   0  0  0  0  0  0  0  0  0  0  0  0
   -1.7588   -0.8820   -2.3768 O   0  0  0  0  0  0  0  0  0  0  0  0
   -2.3186    1.0782    2.0069 C   0  0  0  0  0  0  0  0  0  0  0  0
   -0.9436    1.0719   -1.3205 H   0  0  0  0  0  0  0  0  0  0  0  0
   -2.8988    4.0057   -0.7038 O   0  0  0  0  0  0  0  0  0  0  0  0
    1.2026    0.2942    0.4121 O   0  0  0  0  0  0  0  0  0  0  0  0
   -4.2338   -1.5374    1.0667 O   0  0  0  0  0  0  0  0  0  0  0  0
   -2.3531   -2.3534    2.0412 O   0  0  0  0  0  0  0  0  0  0  0  0
   -2.9797   -3.2411    2.9794 C   0  0  0  0  0  0  0  0  0  0  0  0
   -1.9485   -3.8231    3.8732 C   0  0  0  0  0  0  0  0  0  0  0  0
   -1.5449   -5.1721    3.7417 C   0  0  0  0  0  0  0  0  0  0  0  0
   -0.5481   -5.7062    4.5780 C   0  0  0  0  0  0  0  0  0  0  0  0
    0.0526   -4.9071    5.5697 C   0  0  0  0  0  0  0  0  0  0  0  0
   -0.3490   -3.5649    5.7147 C   0  0  0  0  0  0  0  0  0  0  0  0
   -1.3406   -3.0272    4.8723 C   0  0  0  0  0  0  0  0  0  0  0  0
    1.0474   -5.4202    6.3577 O   0  0  0  0  0  0  0  0  0  0  0  0
    0.5547   -6.0567    7.5491 C   0  0  0  0  0  0  0  0  0  0  0  0
   -0.3747   -1.8195    0.4995 H   0  0  0  0  0  0  0  0  0  0  0  0
   -0.6102    3.1260    0.8682 H   0  0  0  0  0  0  0  0  0  0  0  0
   -0.3019    3.2262   -0.8998 H   0  0  0  0  0  0  0  0  0  0  0  0
   -3.6100   -0.6751   -1.5435 H   0  0  0  0  0  0  0  0  0  0  0  0
   -2.8329   -2.2514   -1.3773 H   0  0  0  0  0  0  0  0  0  0  0  0
   -2.2497   -1.0850   -3.2017 H   0  0  0  0  0  0  0  0  0  0  0  0
   -3.3061    0.8033    2.3740 H   0  0  0  0  0  0  0  0  0  0  0  0
   -1.5691    0.5077    2.5598 H   0  0  0  0  0  0  0  0  0  0  0  0
   -2.1844    2.1294    2.2573 H   0  0  0  0  0  0  0  0  0  0  0  0
   -3.7183   -2.7027    3.5788 H   0  0  0  0  0  0  0  0  0  0  0  0
   -3.5064   -4.0196    2.4211 H   0  0  0  0  0  0  0  0  0  0  0  0
   -1.9662   -5.7747    3.0313 H   0  0  0  0  0  0  0  0  0  0  0  0
   -0.2577   -6.6788    4.4600 H   0  0  0  0  0  0  0  0  0  0  0  0
    0.0831   -2.9772    6.4313 H   0  0  0  0  0  0  0  0  0  0  0  0
   -1.6172   -2.0499    4.9944 H   0  0  0  0  0  0  0  0  0  0  0  0
    0.0402   -5.3420    8.1961 H   0  0  0  0  0  0  0  0  0  0  0  0
    1.4080   -6.4587    8.0960 H   0  0  0  0  0  0  0  0  0  0  0  0
   -0.1172   -6.8856    7.3123 H   0  0  0  0  0  0  0  0  0  0  0  0
  1  8  1  0  0  0  0
  1  5  1  0  0  0  0
  1  2  1  1  0  0  0
  2  3  1  6  0  0  0
  2 12  1  0  0  0  0
  3  4  1  0  0  0  0
  3  9  1  1  0  0  0
  4 27  1  0  0  0  0
  5  4  1  0  0  0  0
  5 15  2  0  0  0  0
  6  2  1  0  0  0  0
  7  6  1  0  0  0  0
  7  8  1  0  0  0  0
  8 28  1  0  0  0  0
  9 17  1  0  0  0  0
 10  3  1  0  0  0  0
 11 10  1  0  0  0  0
 12 35  1  0  0  0  0
 12 33  1  0  0  0  0
 12 34  1  0  0  0  0
 13  1  1  0  0  0  0
 14  7  2  0  0  0  0
 16  9  2  0  0  0  0
 17 18  1  0  0  0  0
 18 36  1  0  0  0  0
 18 19  1  0  0  0  0
 19 24  1  0  0  0  0
 20 19  2  0  0  0  0
 20 21  1  0  0  0  0
 21 22  2  0  0  0  0
 22 23  1  0  0  0  0
 22 25  1  0  0  0  0
 23 40  1  0  0  0  0
 24 41  1  0  0  0  0
 24 23  2  0  0  0  0
 25 26  1  0  0  0  0
 26 43  1  0  0  0  0
 26 42  1  0  0  0  0
 29  8  1  0  0  0  0
 30 10  1  0  0  0  0
 31 10  1  0  0  0  0
 32 11  1  0  0  0  0
 37 18  1  0  0  0  0
 38 20  1  0  0  0  0
 39 21  1  0  0  0  0
 44 26  1  0  0  0  0
M  END
$$$$
