
 OpenBabel11301904003D

 23 24  0  0  1  0  0  0  0  0999 V2000
    1.4523   -3.4159   -0.7500 C   0  0  0  0  0  0  0  0  0  0  0  0
    0.9064   -2.1521   -1.1754 C   0  0  1  0  0  0  0  0  0  0  0  0
    0.9795   -2.3812   -2.6926 C   0  0  2  0  0  0  0  0  0  0  0  0
    0.4419   -3.7005   -2.7465 O   0  0  0  0  0  0  0  0  0  0  0  0
    0.9634   -4.3425   -1.6554 C   0  0  0  0  0  0  0  0  0  0  0  0
    0.3961   -1.1120   -3.1001 C   0  0  0  0  0  0  0  0  0  0  0  0
    0.8309   -0.1521   -2.2309 O   0  0  0  0  0  0  0  0  0  0  0  0
    1.4753   -0.7170   -1.0647 C   0  0  1  0  0  0  0  0  0  0  0  0
   -0.2935   -0.9191   -4.1245 O   0  0  0  0  0  0  0  0  0  0  0  0
    2.0116   -2.4013   -3.0812 H   0  0  0  0  0  0  0  0  0  0  0  0
   -0.1390   -2.1324   -0.8179 H   0  0  0  0  0  0  0  0  0  0  0  0
    2.2545   -3.6424    0.2976 C   0  0  0  0  0  0  0  0  0  0  0  0
    0.9705   -5.5867   -1.5160 O   0  0  0  0  0  0  0  0  0  0  0  0
    1.0908    0.0401    0.2352 C   0  0  0  0  0  0  0  0  0  0  0  0
    1.5858    1.5041    0.2300 C   0  0  0  0  0  0  0  0  0  0  0  0
    2.5622   -0.7179   -1.1927 H   0  0  0  0  0  0  0  0  0  0  0  0
    2.5689   -4.5598    0.5064 H   0  0  0  0  0  0  0  0  0  0  0  0
    2.5536   -2.8975    0.8791 H   0  0  0  0  0  0  0  0  0  0  0  0
    1.5318   -0.4741    1.0936 H   0  0  0  0  0  0  0  0  0  0  0  0
    0.0043    0.0422    0.3614 H   0  0  0  0  0  0  0  0  0  0  0  0
    1.2773    2.0051    1.1494 H   0  0  0  0  0  0  0  0  0  0  0  0
    1.1648    2.0493   -0.6173 H   0  0  0  0  0  0  0  0  0  0  0  0
    2.6751    1.5361    0.1657 H   0  0  0  0  0  0  0  0  0  0  0  0
  1 12  2  0  0  0  0
  2  3  1  6  0  0  0
  2 11  1  0  0  0  0
  2  1  1  0  0  0  0
  3 10  1  6  0  0  0
  4  3  1  0  0  0  0
  4  5  1  0  0  0  0
  5 13  2  0  0  0  0
  5  1  1  0  0  0  0
  6  3  1  0  0  0  0
  6  7  1  0  0  0  0
  7  8  1  0  0  0  0
  8  2  1  1  0  0  0
  8 14  1  0  0  0  0
  9  6  2  0  0  0  0
 12 17  1  0  0  0  0
 12 18  1  0  0  0  0
 14 20  1  0  0  0  0
 14 19  1  0  0  0  0
 15 14  1  0  0  0  0
 15 21  1  0  0  0  0
 16  8  1  0  0  0  0
 22 15  1  0  0  0  0
 23 15  1  0  0  0  0
M  END
$$$$
