
 OpenBabel11301903543D

 32 33  0  0  1  0  0  0  0  0999 V2000
    0.7232    0.5451    1.2590 C   0  0  0  0  0  0  0  0  0  0  0  0
   -0.8912   -0.9330   -1.0073 C   0  0  0  0  0  0  0  0  0  0  0  0
   -1.1960   -0.9728    0.5070 C   0  0  0  0  0  0  0  0  0  0  0  0
    0.1665   -0.8059    1.2176 C   0  0  1  0  0  0  0  0  0  0  0  0
    1.2660   -1.0716    0.1549 C   0  0  2  0  0  0  0  0  0  0  0  0
    0.5452   -1.4779   -1.1489 C   0  0  0  0  0  0  0  0  0  0  0  0
   -0.9260    0.0995   -1.3686 H   0  0  0  0  0  0  0  0  0  0  0  0
   -1.6055   -1.5328   -1.5761 H   0  0  0  0  0  0  0  0  0  0  0  0
   -1.9028   -0.1910    0.7946 H   0  0  0  0  0  0  0  0  0  0  0  0
   -1.6200   -1.9447    0.7716 H   0  0  0  0  0  0  0  0  0  0  0  0
    0.2861   -1.3556    2.1557 H   0  0  0  0  0  0  0  0  0  0  0  0
    2.0249   -1.7814    0.4980 H   0  0  0  0  0  0  0  0  0  0  0  0
    1.0513   -1.0753   -2.0300 H   0  0  0  0  0  0  0  0  0  0  0  0
    0.5201   -2.5689   -1.2243 H   0  0  0  0  0  0  0  0  0  0  0  0
    1.6298    0.3057    0.3074 N   0  0  0  0  0  0  0  0  0  0  0  0
    0.4245    1.5652    1.9195 O   0  0  0  0  0  0  0  0  0  0  0  0
    2.5279    1.1832   -0.3839 C   0  0  0  0  0  0  0  0  0  0  0  0
    4.0598    0.9811   -0.1040 C   0  0  0  0  0  0  0  0  0  0  0  0
    4.3503    1.0002    1.4310 C   0  0  0  0  0  0  0  0  0  0  0  0
    4.8469    2.1589   -0.7711 C   0  0  0  0  0  0  0  0  0  0  0  0
    4.5757   -0.3577   -0.7259 C   0  0  0  0  0  0  0  0  0  0  0  0
    2.3347    1.0885   -1.4562 H   0  0  0  0  0  0  0  0  0  0  0  0
    2.2542    2.2082   -0.1148 H   0  0  0  0  0  0  0  0  0  0  0  0
    5.6639   -0.4273   -0.6546 H   0  0  0  0  0  0  0  0  0  0  0  0
    4.3036   -0.4271   -1.7807 H   0  0  0  0  0  0  0  0  0  0  0  0
    4.1627   -1.2209   -0.2095 H   0  0  0  0  0  0  0  0  0  0  0  0
    4.5375    3.1218   -0.3570 H   0  0  0  0  0  0  0  0  0  0  0  0
    4.6736    2.1824   -1.8498 H   0  0  0  0  0  0  0  0  0  0  0  0
    5.9208    2.0513   -0.6018 H   0  0  0  0  0  0  0  0  0  0  0  0
    5.4221    0.9023    1.6223 H   0  0  0  0  0  0  0  0  0  0  0  0
    4.0087    1.9372    1.8770 H   0  0  0  0  0  0  0  0  0  0  0  0
    3.8428    0.1771    1.9389 H   0  0  0  0  0  0  0  0  0  0  0  0
  1 16  2  0  0  0  0
  2  3  1  0  0  0  0
  3 10  1  0  0  0  0
  3  9  1  0  0  0  0
  3  4  1  0  0  0  0
  4  5  1  6  0  0  0
  4  1  1  0  0  0  0
  4 11  1  0  0  0  0
  5 15  1  0  0  0  0
  5 12  1  1  0  0  0
  6  2  1  0  0  0  0
  6  5  1  0  0  0  0
  7  2  1  0  0  0  0
  8  2  1  0  0  0  0
 13  6  1  0  0  0  0
 14  6  1  0  0  0  0
 15  1  1  0  0  0  0
 17 23  1  0  0  0  0
 17 18  1  0  0  0  0
 17 15  1  0  0  0  0
 18 19  1  0  0  0  0
 19 30  1  0  0  0  0
 19 31  1  0  0  0  0
 19 32  1  0  0  0  0
 20 29  1  0  0  0  0
 20 27  1  0  0  0  0
 20 18  1  0  0  0  0
 21 24  1  0  0  0  0
 21 26  1  0  0  0  0
 21 18  1  0  0  0  0
 22 17  1  0  0  0  0
 25 21  1  0  0  0  0
 28 20  1  0  0  0  0
M  END
$$$$
