
 OpenBabel11301903543D

 32 33  0  0  1  0  0  0  0  0999 V2000
    1.3749   -0.8906   -0.4212 C   0  0  0  0  0  0  0  0  0  0  0  0
    0.0626   -3.5303    1.8065 C   0  0  0  0  0  0  0  0  0  0  0  0
   -0.2019   -3.0894    0.3206 C   0  0  0  0  0  0  0  0  0  0  0  0
    0.4750   -1.7166    0.3732 C   0  0  1  0  0  0  0  0  0  0  0  0
    1.8042   -2.1773    1.0428 C   0  0  1  0  0  0  0  0  0  0  0  0
    1.2313   -2.6507    2.3789 C   0  0  0  0  0  0  0  0  0  0  0  0
   -0.8332   -3.3889    2.4183 H   0  0  0  0  0  0  0  0  0  0  0  0
    0.3394   -4.5887    1.8292 H   0  0  0  0  0  0  0  0  0  0  0  0
   -1.2692   -3.0019    0.1088 H   0  0  0  0  0  0  0  0  0  0  0  0
    0.2662   -3.7560   -0.4124 H   0  0  0  0  0  0  0  0  0  0  0  0
   -0.1397   -1.0134    0.9585 H   0  0  0  0  0  0  0  0  0  0  0  0
    2.3328   -3.0253    0.5645 H   0  0  0  0  0  0  0  0  0  0  0  0
    0.8782   -1.8209    3.0008 H   0  0  0  0  0  0  0  0  0  0  0  0
    1.9579   -3.2483    2.9342 H   0  0  0  0  0  0  0  0  0  0  0  0
    2.3761   -1.0030    0.4892 N   0  0  0  0  0  0  0  0  0  0  0  0
    1.1637   -0.2074   -1.4474 O   0  0  0  0  0  0  0  0  0  0  0  0
    3.6366   -0.3931    0.7948 C   0  0  0  0  0  0  0  0  0  0  0  0
    4.0515    0.9674    0.1246 C   0  0  0  0  0  0  0  0  0  0  0  0
    4.4007    0.7465   -1.3823 C   0  0  0  0  0  0  0  0  0  0  0  0
    5.3381    1.4951    0.8484 C   0  0  0  0  0  0  0  0  0  0  0  0
    2.9408    2.0568    0.2867 C   0  0  0  0  0  0  0  0  0  0  0  0
    3.6333   -0.2520    1.8790 H   0  0  0  0  0  0  0  0  0  0  0  0
    4.4039   -1.1436    0.5869 H   0  0  0  0  0  0  0  0  0  0  0  0
    3.3289    3.0500    0.0515 H   0  0  0  0  0  0  0  0  0  0  0  0
    2.5669    2.0758    1.3122 H   0  0  0  0  0  0  0  0  0  0  0  0
    2.0982    1.8787   -0.3778 H   0  0  0  0  0  0  0  0  0  0  0  0
    6.1427    0.7562    0.8105 H   0  0  0  0  0  0  0  0  0  0  0  0
    5.1317    1.7154    1.8997 H   0  0  0  0  0  0  0  0  0  0  0  0
    5.7022    2.4135    0.3807 H   0  0  0  0  0  0  0  0  0  0  0  0
    4.6923    1.6856   -1.8556 H   0  0  0  0  0  0  0  0  0  0  0  0
    5.2278    0.0399   -1.4876 H   0  0  0  0  0  0  0  0  0  0  0  0
    3.5531    0.3451   -1.9328 H   0  0  0  0  0  0  0  0  0  0  0  0
  1  4  1  0  0  0  0
  1 15  1  0  0  0  0
  2  8  1  0  0  0  0
  2  6  1  0  0  0  0
  2  7  1  0  0  0  0
  3  4  1  0  0  0  0
  3  2  1  0  0  0  0
  4 11  1  0  0  0  0
  4  5  1  1  0  0  0
  5 12  1  6  0  0  0
  5  6  1  0  0  0  0
  6 14  1  0  0  0  0
  6 13  1  0  0  0  0
  9  3  1  0  0  0  0
 10  3  1  0  0  0  0
 15 17  1  0  0  0  0
 15  5  1  0  0  0  0
 16  1  2  0  0  0  0
 17 22  1  0  0  0  0
 18 21  1  0  0  0  0
 18 17  1  0  0  0  0
 18 20  1  0  0  0  0
 19 18  1  0  0  0  0
 20 28  1  0  0  0  0
 21 25  1  0  0  0  0
 23 17  1  0  0  0  0
 24 21  1  0  0  0  0
 26 21  1  0  0  0  0
 27 20  1  0  0  0  0
 29 20  1  0  0  0  0
 30 19  1  0  0  0  0
 31 19  1  0  0  0  0
 32 19  1  0  0  0  0
M  END
$$$$
