
     RDKit          3D

 38 41  0  0  1  0  0  0  0  0999 V2000
    2.1947   -1.4111    0.4407 C   0  0  2  0  0  0  0  0  0  0  0  0
    2.5356    0.1182    0.4346 C   0  0  0  0  0  0  0  0  0  0  0  0
    1.1893   -1.1468   -0.6941 C   0  0  2  0  0  0  0  0  0  0  0  0
    1.3464    0.3602   -0.5408 C   0  0  1  0  0  0  0  0  0  0  0  0
   -0.1509   -1.1332    0.0788 C   0  0  1  0  0  0  0  0  0  0  0  0
   -0.0907    0.4338    0.0403 C   0  0  2  0  0  0  0  0  0  0  0  0
   -1.2844   -1.8319   -0.6612 C   0  0  0  0  0  0  0  0  0  0  0  0
    1.5272   -1.9295    1.6183 O   0  0  0  0  0  0  0  0  0  0  0  0
    0.1672   -1.7650    1.5028 C   0  0  0  0  0  0  0  0  0  0  0  0
   -0.5984   -2.0798    2.4032 O   0  0  0  0  0  0  0  0  0  0  0  0
    3.0277   -2.0646    0.1604 H   0  0  0  0  0  0  0  0  0  0  0  0
    1.3000   -1.6156   -1.6692 H   0  0  0  0  0  0  0  0  0  0  0  0
    1.5537    0.9290   -1.4503 H   0  0  0  0  0  0  0  0  0  0  0  0
    2.5086    0.8341    1.7820 C   0  0  0  0  0  0  0  0  0  0  0  0
    3.8745    0.3903   -0.2714 C   0  0  0  0  0  0  0  0  0  0  0  0
   -1.0775    1.2036   -0.8387 C   0  0  2  0  0  0  0  0  0  0  0  0
   -2.4952    1.0586   -0.3407 C   0  0  0  0  0  0  0  0  0  0  0  0
   -0.9944    0.7844   -2.1955 O   0  0  0  0  0  0  0  0  0  0  0  0
   -3.1204   -0.0907   -0.0139 C   0  0  0  0  0  0  0  0  0  0  0  0
   -2.6486   -1.5197   -0.0519 C   0  0  0  0  0  0  0  0  0  0  0  0
   -3.2349    2.3695   -0.2151 C   0  0  0  0  0  0  0  0  0  0  0  0
   -0.1252    0.8803    1.0433 H   0  0  0  0  0  0  0  0  0  0  0  0
   -1.1261   -2.9178   -0.6263 H   0  0  0  0  0  0  0  0  0  0  0  0
   -1.2890   -1.5761   -1.7260 H   0  0  0  0  0  0  0  0  0  0  0  0
    3.3588    0.5269    2.4012 H   0  0  0  0  0  0  0  0  0  0  0  0
    1.6037    0.6209    2.3572 H   0  0  0  0  0  0  0  0  0  0  0  0
    2.5660    1.9195    1.6461 H   0  0  0  0  0  0  0  0  0  0  0  0
    4.7137    0.0306    0.3340 H   0  0  0  0  0  0  0  0  0  0  0  0
    4.0135    1.4636   -0.4411 H   0  0  0  0  0  0  0  0  0  0  0  0
    3.9290   -0.1103   -1.2448 H   0  0  0  0  0  0  0  0  0  0  0  0
   -4.1484   -0.0163    0.3472 H   0  0  0  0  0  0  0  0  0  0  0  0
   -3.3967   -2.0887   -0.6193 H   0  0  0  0  0  0  0  0  0  0  0  0
   -2.6946   -1.9080    0.9716 H   0  0  0  0  0  0  0  0  0  0  0  0
   -4.2666    2.2384    0.1277 H   0  0  0  0  0  0  0  0  0  0  0  0
   -3.2712    2.8767   -1.1850 H   0  0  0  0  0  0  0  0  0  0  0  0
   -2.7280    3.0227    0.5029 H   0  0  0  0  0  0  0  0  0  0  0  0
   -0.7879    2.2614   -0.8233 H   0  0  0  0  0  0  0  0  0  0  0  0
   -1.8807    0.8824   -2.5840 H   0  0  0  0  0  0  0  0  0  0  0  0
  1  3  1  0
  1 11  1  6
  2  4  1  0
  2  1  1  0
  2 15  1  0
  3  5  1  0
  3 12  1  6
  4  6  1  0
  4  3  1  0
  4 13  1  6
  5  6  1  0
  5  7  1  6
  6 22  1  1
  7 20  1  0
  8  1  1  0
  9  8  1  0
  9  5  1  0
 10  9  2  0
 14 27  1  0
 14  2  1  0
 15 29  1  0
 15 30  1  0
 16  6  1  0
 16 17  1  0
 17 21  1  0
 17 19  2  0
 18 16  1  0
 19 20  1  0
 19 31  1  0
 20 33  1  0
 20 32  1  0
 21 36  1  0
 21 34  1  0
 23  7  1  0
 24  7  1  0
 25 14  1  0
 26 14  1  0
 28 15  1  0
 35 21  1  0
 16 37  1  6
 18 38  1  0
M  END
$$$$
