
 OpenBabel11301904053D

 54 54  0  0  1  0  0  0  0  0999 V2000
   -9.0875    2.3215   -0.5509 C   0  0  0  0  0  0  0  0  0  0  0  0
   -8.1740    2.2961    0.6962 C   0  0  0  0  0  0  0  0  0  0  0  0
   -8.7993    2.7185    1.9675 C   0  0  0  0  0  0  0  0  0  0  0  0
   -8.0257    2.6471    3.0926 O   0  0  0  0  0  0  0  0  0  0  0  0
   -9.9812    3.1392    2.0174 O   0  0  0  0  0  0  0  0  0  0  0  0
   -8.3539    3.0171    4.4442 C   0  0  1  0  0  0  0  0  0  0  0  0
   -8.2196    1.7625    5.3416 C   0  0  0  0  0  0  0  0  0  0  0  0
   -7.5272    4.2825    4.8839 C   0  0  1  0  0  0  0  0  0  0  0  0
   -5.9522    4.1778    4.8819 C   0  0  2  0  0  0  0  0  0  0  0  0
   -5.2406    3.3592    6.0234 C   0  0  2  0  0  0  0  0  0  0  0  0
   -3.6818    3.4137    5.9049 C   0  0  0  0  0  0  0  0  0  0  0  0
   -3.1996    2.6934    4.7445 O   0  0  0  0  0  0  0  0  0  0  0  0
   -1.7635    2.6805    4.6062 C   0  0  0  0  0  0  0  0  0  0  0  0
   -1.3615    1.9609    3.3681 C   0  0  0  0  0  0  0  0  0  0  0  0
   -1.1522    0.5605    3.3811 C   0  0  0  0  0  0  0  0  0  0  0  0
   -0.6868   -0.1089    2.2331 C   0  0  0  0  0  0  0  0  0  0  0  0
   -0.4285    0.6076    1.0464 C   0  0  0  0  0  0  0  0  0  0  0  0
   -0.6815    1.9947    1.0100 C   0  0  0  0  0  0  0  0  0  0  0  0
   -1.1455    2.6636    2.1589 C   0  0  0  0  0  0  0  0  0  0  0  0
    0.0490   -0.0391   -0.0640 O   0  0  0  0  0  0  0  0  0  0  0  0
    1.4888   -0.0634   -0.1082 C   0  0  0  0  0  0  0  0  0  0  0  0
   -5.6569    3.8233    7.4543 C   0  0  0  0  0  0  0  0  0  0  0  0
   -7.9664    5.4938    4.0012 C   0  0  0  0  0  0  0  0  0  0  0  0
   -5.5373    3.7164    3.5948 O   0  0  0  0  0  0  0  0  0  0  0  0
   -8.5187    2.0031   -1.4261 H   0  0  0  0  0  0  0  0  0  0  0  0
   -9.4672    3.3283   -0.7333 H   0  0  0  0  0  0  0  0  0  0  0  0
   -9.9295    1.6406   -0.4178 H   0  0  0  0  0  0  0  0  0  0  0  0
   -7.8028    1.2781    0.8268 H   0  0  0  0  0  0  0  0  0  0  0  0
   -7.3144    2.9421    0.5073 H   0  0  0  0  0  0  0  0  0  0  0  0
   -9.4119    3.2912    4.5027 H   0  0  0  0  0  0  0  0  0  0  0  0
   -8.2288    2.0373    6.3983 H   0  0  0  0  0  0  0  0  0  0  0  0
   -7.3054    1.2143    5.1144 H   0  0  0  0  0  0  0  0  0  0  0  0
   -9.0603    1.0878    5.1600 H   0  0  0  0  0  0  0  0  0  0  0  0
   -7.8555    4.5432    5.8916 H   0  0  0  0  0  0  0  0  0  0  0  0
   -5.5619    5.1983    4.9727 H   0  0  0  0  0  0  0  0  0  0  0  0
   -5.5147    2.3104    5.9308 H   0  0  0  0  0  0  0  0  0  0  0  0
   -3.2414    2.9612    6.7977 H   0  0  0  0  0  0  0  0  0  0  0  0
   -3.3624    4.4595    5.8633 H   0  0  0  0  0  0  0  0  0  0  0  0
   -1.3751    3.7043    4.5794 H   0  0  0  0  0  0  0  0  0  0  0  0
   -1.3127    2.1869    5.4731 H   0  0  0  0  0  0  0  0  0  0  0  0
   -1.3253    0.0165    4.2304 H   0  0  0  0  0  0  0  0  0  0  0  0
   -0.5273   -1.1182    2.2648 H   0  0  0  0  0  0  0  0  0  0  0  0
   -0.5193    2.5205    0.1488 H   0  0  0  0  0  0  0  0  0  0  0  0
   -1.3149    3.6717    2.1052 H   0  0  0  0  0  0  0  0  0  0  0  0
    1.9061    0.9472   -0.1457 H   0  0  0  0  0  0  0  0  0  0  0  0
    1.7914   -0.5875   -1.0150 H   0  0  0  0  0  0  0  0  0  0  0  0
    1.9070   -0.5994    0.7488 H   0  0  0  0  0  0  0  0  0  0  0  0
   -6.7117    3.6292    7.6472 H   0  0  0  0  0  0  0  0  0  0  0  0
   -5.4642    4.8910    7.5836 H   0  0  0  0  0  0  0  0  0  0  0  0
   -5.0950    3.2778    8.2160 H   0  0  0  0  0  0  0  0  0  0  0  0
   -7.6528    5.3505    2.9652 H   0  0  0  0  0  0  0  0  0  0  0  0
   -9.0510    5.6209    4.0182 H   0  0  0  0  0  0  0  0  0  0  0  0
   -7.5224    6.4224    4.3688 H   0  0  0  0  0  0  0  0  0  0  0  0
   -4.5824    3.9200    3.5381 H   0  0  0  0  0  0  0  0  0  0  0  0
  1 27  1  0  0  0  0
  1  2  1  0  0  0  0
  2 28  1  0  0  0  0
  2  3  1  0  0  0  0
  3  5  2  0  0  0  0
  3  4  1  0  0  0  0
  4  6  1  0  0  0  0
  6 30  1  1  0  0  0
  6  8  1  0  0  0  0
  6  7  1  0  0  0  0
  7 31  1  0  0  0  0
  8 34  1  1  0  0  0
  9  8  1  0  0  0  0
  9 35  1  1  0  0  0
  9 10  1  0  0  0  0
 10 36  1  6  0  0  0
 10 22  1  0  0  0  0
 11 10  1  0  0  0  0
 11 37  1  0  0  0  0
 12 11  1  0  0  0  0
 13 12  1  0  0  0  0
 13 40  1  0  0  0  0
 14 15  1  0  0  0  0
 14 13  1  0  0  0  0
 15 41  1  0  0  0  0
 16 42  1  0  0  0  0
 16 15  2  0  0  0  0
 17 16  1  0  0  0  0
 18 17  2  0  0  0  0
 18 19  1  0  0  0  0
 19 14  2  0  0  0  0
 20 17  1  0  0  0  0
 21 20  1  0  0  0  0
 21 47  1  0  0  0  0
 22 49  1  0  0  0  0
 22 48  1  0  0  0  0
 22 50  1  0  0  0  0
 23 52  1  0  0  0  0
 23 53  1  0  0  0  0
 23  8  1  0  0  0  0
 24  9  1  0  0  0  0
 25  1  1  0  0  0  0
 26  1  1  0  0  0  0
 29  2  1  0  0  0  0
 32  7  1  0  0  0  0
 33  7  1  0  0  0  0
 38 11  1  0  0  0  0
 39 13  1  0  0  0  0
 43 18  1  0  0  0  0
 44 19  1  0  0  0  0
 45 21  1  0  0  0  0
 46 21  1  0  0  0  0
 51 23  1  0  0  0  0
 54 24  1  0  0  0  0
M  END
$$$$
