
 OpenBabel11301904053D

 54 54  0  0  1  0  0  0  0  0999 V2000
   -8.5735    3.4598   -1.3682 C   0  0  0  0  0  0  0  0  0  0  0  0
   -7.4230    4.0087   -0.4926 C   0  0  0  0  0  0  0  0  0  0  0  0
   -7.9015    4.7272    0.7037 C   0  0  0  0  0  0  0  0  0  0  0  0
   -7.4985    4.3282    1.9527 O   0  0  0  0  0  0  0  0  0  0  0  0
   -8.6576    5.7161    0.5524 O   0  0  0  0  0  0  0  0  0  0  0  0
   -7.8606    4.9068    3.2237 C   0  0  2  0  0  0  0  0  0  0  0  0
   -7.3984    6.3885    3.3252 C   0  0  0  0  0  0  0  0  0  0  0  0
   -7.3633    4.0213    4.4257 C   0  0  2  0  0  0  0  0  0  0  0  0
   -5.7963    3.9333    4.5614 C   0  0  2  0  0  0  0  0  0  0  0  0
   -5.2109    3.2751    5.8677 C   0  0  2  0  0  0  0  0  0  0  0  0
   -3.6498    3.3038    5.8940 C   0  0  0  0  0  0  0  0  0  0  0  0
   -3.0989    2.5418    4.8045 O   0  0  0  0  0  0  0  0  0  0  0  0
   -1.6727    2.6416    4.6589 C   0  0  0  0  0  0  0  0  0  0  0  0
   -1.2978    1.9372    3.4114 C   0  0  0  0  0  0  0  0  0  0  0  0
   -1.1218    0.5342    3.4030 C   0  0  0  0  0  0  0  0  0  0  0  0
   -0.6977   -0.1251    2.2347 C   0  0  0  0  0  0  0  0  0  0  0  0
   -0.4412    0.6063    1.0581 C   0  0  0  0  0  0  0  0  0  0  0  0
   -0.6964    1.9915    1.0370 C   0  0  0  0  0  0  0  0  0  0  0  0
   -1.1162    2.6527    2.2049 C   0  0  0  0  0  0  0  0  0  0  0  0
    0.0498   -0.0222   -0.0536 O   0  0  0  0  0  0  0  0  0  0  0  0
    1.4913   -0.0374   -0.0702 C   0  0  0  0  0  0  0  0  0  0  0  0
   -5.7358    3.9537    7.1703 C   0  0  0  0  0  0  0  0  0  0  0  0
   -8.0325    2.6135    4.3858 C   0  0  0  0  0  0  0  0  0  0  0  0
   -5.3044    3.2672    3.3976 O   0  0  0  0  0  0  0  0  0  0  0  0
   -8.1517    2.9644   -2.2453 H   0  0  0  0  0  0  0  0  0  0  0  0
   -9.2231    4.2723   -1.7088 H   0  0  0  0  0  0  0  0  0  0  0  0
   -9.1720    2.7345   -0.8087 H   0  0  0  0  0  0  0  0  0  0  0  0
   -6.7855    3.1751   -0.1878 H   0  0  0  0  0  0  0  0  0  0  0  0
   -6.8174    4.6966   -1.0882 H   0  0  0  0  0  0  0  0  0  0  0  0
   -8.9537    4.9130    3.2669 H   0  0  0  0  0  0  0  0  0  0  0  0
   -7.5842    6.7763    4.3289 H   0  0  0  0  0  0  0  0  0  0  0  0
   -6.3347    6.4791    3.0940 H   0  0  0  0  0  0  0  0  0  0  0  0
   -7.9527    7.0091    2.6209 H   0  0  0  0  0  0  0  0  0  0  0  0
   -7.7491    4.5153    5.3225 H   0  0  0  0  0  0  0  0  0  0  0  0
   -5.3915    4.9461    4.5308 H   0  0  0  0  0  0  0  0  0  0  0  0
   -5.5099    2.2240    5.8994 H   0  0  0  0  0  0  0  0  0  0  0  0
   -3.2856    2.8691    6.8300 H   0  0  0  0  0  0  0  0  0  0  0  0
   -3.3148    4.3450    5.8423 H   0  0  0  0  0  0  0  0  0  0  0  0
   -1.3607    3.6899    4.6045 H   0  0  0  0  0  0  0  0  0  0  0  0
   -1.1657    2.1916    5.5182 H   0  0  0  0  0  0  0  0  0  0  0  0
   -1.2889   -0.0138    4.2509 H   0  0  0  0  0  0  0  0  0  0  0  0
   -0.5632   -1.1377    2.2463 H   0  0  0  0  0  0  0  0  0  0  0  0
   -0.5647    2.5236    0.1749 H   0  0  0  0  0  0  0  0  0  0  0  0
   -1.2820    3.6620    2.1701 H   0  0  0  0  0  0  0  0  0  0  0  0
    1.9033    0.9757   -0.0961 H   0  0  0  0  0  0  0  0  0  0  0  0
    1.8166   -0.5575   -0.9708 H   0  0  0  0  0  0  0  0  0  0  0  0
    1.8981   -0.5706    0.7943 H   0  0  0  0  0  0  0  0  0  0  0  0
   -6.8120    3.8187    7.2817 H   0  0  0  0  0  0  0  0  0  0  0  0
   -5.5155    5.0241    7.1610 H   0  0  0  0  0  0  0  0  0  0  0  0
   -5.2664    3.5154    8.0542 H   0  0  0  0  0  0  0  0  0  0  0  0
   -9.1139    2.7091    4.2729 H   0  0  0  0  0  0  0  0  0  0  0  0
   -7.6515    2.0266    3.5481 H   0  0  0  0  0  0  0  0  0  0  0  0
   -7.8473    2.0654    5.3111 H   0  0  0  0  0  0  0  0  0  0  0  0
   -4.3774    3.5699    3.2996 H   0  0  0  0  0  0  0  0  0  0  0  0
  1 27  1  0  0  0  0
  1  2  1  0  0  0  0
  2 28  1  0  0  0  0
  2  3  1  0  0  0  0
  3  4  1  0  0  0  0
  4  6  1  0  0  0  0
  5  3  2  0  0  0  0
  6 30  1  1  0  0  0
  6  7  1  0  0  0  0
  6  8  1  0  0  0  0
  7 31  1  0  0  0  0
  8  9  1  0  0  0  0
  8 34  1  1  0  0  0
  9 35  1  6  0  0  0
  9 10  1  0  0  0  0
 10 11  1  0  0  0  0
 10 36  1  1  0  0  0
 10 22  1  0  0  0  0
 11 37  1  0  0  0  0
 12 11  1  0  0  0  0
 13 12  1  0  0  0  0
 13 40  1  0  0  0  0
 14 13  1  0  0  0  0
 15 14  1  0  0  0  0
 15 41  1  0  0  0  0
 16 42  1  0  0  0  0
 16 15  2  0  0  0  0
 17 16  1  0  0  0  0
 18 17  2  0  0  0  0
 18 19  1  0  0  0  0
 19 14  2  0  0  0  0
 20 17  1  0  0  0  0
 21 20  1  0  0  0  0
 21 47  1  0  0  0  0
 22 48  1  0  0  0  0
 22 50  1  0  0  0  0
 23  8  1  0  0  0  0
 23 53  1  0  0  0  0
 24  9  1  0  0  0  0
 25  1  1  0  0  0  0
 26  1  1  0  0  0  0
 29  2  1  0  0  0  0
 32  7  1  0  0  0  0
 33  7  1  0  0  0  0
 38 11  1  0  0  0  0
 39 13  1  0  0  0  0
 43 18  1  0  0  0  0
 44 19  1  0  0  0  0
 45 21  1  0  0  0  0
 46 21  1  0  0  0  0
 49 22  1  0  0  0  0
 51 23  1  0  0  0  0
 52 23  1  0  0  0  0
 54 24  1  0  0  0  0
M  END
$$$$
