
 OpenBabel11301903583D

 76 79  0  0  1  0  0  0  0  0999 V2000
    3.5540   -0.8225    3.6197 C   0  0  2  0  0  0  0  0  0  0  0  0
    2.2880   -0.1976    2.9387 C   0  0  1  0  0  0  0  0  0  0  0  0
    2.1234    1.1299    3.7754 C   0  0  0  0  0  0  0  0  0  0  0  0
    3.1072    1.0778    4.9715 C   0  0  0  0  0  0  0  0  0  0  0  0
    3.5157   -0.4159    5.1389 C   0  0  1  0  0  0  0  0  0  0  0  0
    2.5354    0.0160    1.4650 C   0  0  0  0  0  0  0  0  0  0  0  0
    2.8797   -1.0978    0.5387 C   0  0  0  0  0  0  0  0  0  0  0  0
    4.2485   -1.7572    0.8542 C   0  0  0  0  0  0  0  0  0  0  0  0
    4.2521   -2.6408    2.0287 C   0  0  0  0  0  0  0  0  0  0  0  0
    3.9236   -2.1952    3.2668 C   0  0  0  0  0  0  0  0  0  0  0  0
    3.3533   -6.4199    1.5587 Si  0  0  0  0  0  0  0  0  0  0  0  0
    2.4424    1.1566    0.9507 O   0  0  0  0  0  0  0  0  0  0  0  0
    0.9950   -1.0762    3.0742 C   0  0  0  0  0  0  0  0  0  0  0  0
    2.6054   -1.1192    6.2374 C   0  0  0  0  0  0  0  0  0  0  0  0
    2.4348   -2.6638    6.1574 C   0  0  0  0  0  0  0  0  0  0  0  0
    3.1131   -0.7703    7.6750 C   0  0  0  0  0  0  0  0  0  0  0  0
    1.6843   -6.8047    1.4469 C   0  0  0  0  0  0  0  0  0  0  0  0
    4.0660   -7.1480    3.0396 C   0  0  0  0  0  0  0  0  0  0  0  0
    4.1131   -6.8274    0.0755 C   0  0  0  0  0  0  0  0  0  0  0  0
    3.5145   -6.3717    4.2956 C   0  0  0  0  0  0  0  0  0  0  0  0
    5.6474   -7.1035    3.0454 C   0  0  0  0  0  0  0  0  0  0  0  0
    3.5969   -8.6332    3.2666 C   0  0  0  0  0  0  0  0  0  0  0  0
    1.2339   -8.0652    0.9778 C   0  0  0  0  0  0  0  0  0  0  0  0
   -0.1413   -8.3669    0.9129 C   0  0  0  0  0  0  0  0  0  0  0  0
   -1.0933   -7.4072    1.2963 C   0  0  0  0  0  0  0  0  0  0  0  0
   -0.6692   -6.1415    1.7318 C   0  0  0  0  0  0  0  0  0  0  0  0
    0.7038   -5.8490    1.8151 C   0  0  0  0  0  0  0  0  0  0  0  0
    4.6398   -8.1144   -0.2028 C   0  0  0  0  0  0  0  0  0  0  0  0
    5.2155   -8.4229   -1.4513 C   0  0  0  0  0  0  0  0  0  0  0  0
    5.2811   -7.4459   -2.4573 C   0  0  0  0  0  0  0  0  0  0  0  0
    4.7580   -6.1661   -2.2153 C   0  0  0  0  0  0  0  0  0  0  0  0
    4.1739   -5.8669   -0.9693 C   0  0  0  0  0  0  0  0  0  0  0  0
    3.3943   -4.7721    1.7197 O   0  0  0  0  0  0  0  0  0  0  0  0
    4.6298   -4.0491    1.8552 C   0  0  0  0  0  0  0  0  0  0  0  0
    4.4193   -0.2594    3.2335 H   0  0  0  0  0  0  0  0  0  0  0  0
    2.3416    2.0336    3.2019 H   0  0  0  0  0  0  0  0  0  0  0  0
    1.1040    1.2474    4.1534 H   0  0  0  0  0  0  0  0  0  0  0  0
    3.9983    1.6735    4.7415 H   0  0  0  0  0  0  0  0  0  0  0  0
    2.6550    1.5139    5.8655 H   0  0  0  0  0  0  0  0  0  0  0  0
    4.5505   -0.4704    5.4998 H   0  0  0  0  0  0  0  0  0  0  0  0
    2.9226   -0.7206   -0.4883 H   0  0  0  0  0  0  0  0  0  0  0  0
    2.0885   -1.8511    0.5437 H   0  0  0  0  0  0  0  0  0  0  0  0
    5.0136   -0.9876    0.9893 H   0  0  0  0  0  0  0  0  0  0  0  0
    4.5371   -2.3082   -0.0450 H   0  0  0  0  0  0  0  0  0  0  0  0
    3.9696   -2.8460    4.0070 H   0  0  0  0  0  0  0  0  0  0  0  0
    1.1482   -2.0859    2.6923 H   0  0  0  0  0  0  0  0  0  0  0  0
    0.6707   -1.1676    4.1071 H   0  0  0  0  0  0  0  0  0  0  0  0
    0.1690   -0.6234    2.5202 H   0  0  0  0  0  0  0  0  0  0  0  0
    1.5953   -0.7088    6.1715 H   0  0  0  0  0  0  0  0  0  0  0  0
    3.3998   -3.1689    6.2522 H   0  0  0  0  0  0  0  0  0  0  0  0
    1.7872   -3.0190    6.9656 H   0  0  0  0  0  0  0  0  0  0  0  0
    1.9588   -2.9569    5.2209 H   0  0  0  0  0  0  0  0  0  0  0  0
    4.1046   -1.1991    7.8477 H   0  0  0  0  0  0  0  0  0  0  0  0
    3.1788    0.3086    7.8226 H   0  0  0  0  0  0  0  0  0  0  0  0
    2.4328   -1.1625    8.4358 H   0  0  0  0  0  0  0  0  0  0  0  0
    2.4236   -6.4133    4.3445 H   0  0  0  0  0  0  0  0  0  0  0  0
    3.8006   -5.3217    4.2968 H   0  0  0  0  0  0  0  0  0  0  0  0
    3.9017   -6.7977    5.2253 H   0  0  0  0  0  0  0  0  0  0  0  0
    6.0342   -6.3115    3.6908 H   0  0  0  0  0  0  0  0  0  0  0  0
    6.0727   -6.9431    2.0528 H   0  0  0  0  0  0  0  0  0  0  0  0
    6.0805   -8.0325    3.4233 H   0  0  0  0  0  0  0  0  0  0  0  0
    3.9730   -9.3112    2.5079 H   0  0  0  0  0  0  0  0  0  0  0  0
    2.5100   -8.7160    3.2930 H   0  0  0  0  0  0  0  0  0  0  0  0
    3.9599   -9.0149    4.2241 H   0  0  0  0  0  0  0  0  0  0  0  0
    1.8997   -8.7859    0.6902 H   0  0  0  0  0  0  0  0  0  0  0  0
   -0.4504   -9.2868    0.5910 H   0  0  0  0  0  0  0  0  0  0  0  0
   -2.0912   -7.6277    1.2541 H   0  0  0  0  0  0  0  0  0  0  0  0
   -1.3618   -5.4348    1.9950 H   0  0  0  0  0  0  0  0  0  0  0  0
    0.9637   -4.9245    2.1609 H   0  0  0  0  0  0  0  0  0  0  0  0
    4.6160   -8.8546    0.4893 H   0  0  0  0  0  0  0  0  0  0  0  0
    5.5916   -9.3579   -1.6274 H   0  0  0  0  0  0  0  0  0  0  0  0
    5.7104   -7.6675   -3.3592 H   0  0  0  0  0  0  0  0  0  0  0  0
    4.8022   -5.4517   -2.9476 H   0  0  0  0  0  0  0  0  0  0  0  0
    3.7927   -4.9252   -0.8503 H   0  0  0  0  0  0  0  0  0  0  0  0
    5.2103   -4.3814    2.7133 H   0  0  0  0  0  0  0  0  0  0  0  0
    5.2759   -4.1854    0.9864 H   0  0  0  0  0  0  0  0  0  0  0  0
  1  2  1  6  0  0  0
  2 13  1  1  0  0  0
  2  3  1  0  0  0  0
  3 37  1  0  0  0  0
  3  4  1  0  0  0  0
  4  5  1  0  0  0  0
  4 39  1  0  0  0  0
  5  1  1  6  0  0  0
  5 40  1  0  0  0  0
  5 14  1  0  0  0  0
  6  2  1  0  0  0  0
  7 42  1  0  0  0  0
  7  8  1  0  0  0  0
  7  6  1  0  0  0  0
  8 43  1  0  0  0  0
  8  9  1  0  0  0  0
  9 10  2  0  0  0  0
 10  1  1  0  0  0  0
 10 45  1  0  0  0  0
 11 33  1  0  0  0  0
 11 18  1  0  0  0  0
 12  6  2  0  0  0  0
 13 47  1  0  0  0  0
 14 16  1  0  0  0  0
 15 14  1  0  0  0  0
 15 50  1  0  0  0  0
 15 51  1  0  0  0  0
 16 54  1  0  0  0  0
 16 53  1  0  0  0  0
 16 55  1  0  0  0  0
 17 11  1  0  0  0  0
 17 27  2  0  0  0  0
 18 21  1  0  0  0  0
 18 22  1  0  0  0  0
 18 20  1  0  0  0  0
 19 11  1  0  0  0  0
 20 57  1  0  0  0  0
 20 56  1  0  0  0  0
 20 58  1  0  0  0  0
 21 61  1  0  0  0  0
 21 59  1  0  0  0  0
 22 63  1  0  0  0  0
 22 64  1  0  0  0  0
 23 17  1  0  0  0  0
 24 23  2  0  0  0  0
 24 25  1  0  0  0  0
 25 26  2  0  0  0  0
 26 27  1  0  0  0  0
 26 68  1  0  0  0  0
 27 69  1  0  0  0  0
 28 19  1  0  0  0  0
 28 70  1  0  0  0  0
 29 28  2  0  0  0  0
 30 31  2  0  0  0  0
 30 29  1  0  0  0  0
 31 32  1  0  0  0  0
 32 74  1  0  0  0  0
 32 19  2  0  0  0  0
 33 34  1  0  0  0  0
 34  9  1  0  0  0  0
 34 75  1  0  0  0  0
 35  1  1  0  0  0  0
 36  3  1  0  0  0  0
 38  4  1  0  0  0  0
 41  7  1  0  0  0  0
 44  8  1  0  0  0  0
 46 13  1  0  0  0  0
 48 13  1  0  0  0  0
 49 14  1  0  0  0  0
 52 15  1  0  0  0  0
 60 21  1  0  0  0  0
 62 22  1  0  0  0  0
 65 23  1  0  0  0  0
 66 24  1  0  0  0  0
 67 25  1  0  0  0  0
 71 29  1  0  0  0  0
 72 30  1  0  0  0  0
 73 31  1  0  0  0  0
 76 34  1  0  0  0  0
M  END
$$$$
