
     RDKit          3D

 36 37  0  0  1  0  0  0  0  0999 V2000
   -1.2861    1.5682   -1.0622 C   0  0  0  0  0  0  0  0  0  0  0  0
   -0.7851    1.4684    0.3455 C   0  0  1  0  0  0  0  0  0  0  0  0
   -0.4547    0.0830    0.8871 C   0  0  1  0  0  0  0  0  0  0  0  0
   -1.3215   -1.0473    0.2093 C   0  0  0  0  0  0  0  0  0  0  0  0
   -2.6733   -0.4585   -0.2643 C   0  0  0  0  0  0  0  0  0  0  0  0
   -2.4753    0.6596   -1.2694 C   0  0  0  0  0  0  0  0  0  0  0  0
   -3.2533    0.8220   -2.2089 O   0  0  0  0  0  0  0  0  0  0  0  0
    0.1182    2.5162    0.7288 O   0  0  0  0  0  0  0  0  0  0  0  0
   -1.1760    2.5621    1.3315 C   0  0  0  0  0  0  0  0  0  0  0  0
   -1.6312   -2.1392    1.2617 C   0  0  0  0  0  0  0  0  0  0  0  0
   -0.6415   -1.7557   -0.9788 C   0  0  0  0  0  0  0  0  0  0  0  0
    1.0623   -0.1978    1.0105 C   0  0  0  0  0  0  0  0  0  0  0  0
    1.9408    0.1304   -0.2009 C   0  0  0  0  0  0  0  0  0  0  0  0
    3.4031   -0.1992    0.0547 C   0  0  0  0  0  0  0  0  0  0  0  0
    4.3902    0.3292   -0.9537 C   0  0  0  0  0  0  0  0  0  0  0  0
    3.7743   -0.8857    1.0058 O   0  0  0  0  0  0  0  0  0  0  0  0
   -1.5944    2.5925   -1.3004 H   0  0  0  0  0  0  0  0  0  0  0  0
   -0.5002    1.2785   -1.7664 H   0  0  0  0  0  0  0  0  0  0  0  0
   -0.8021    0.1062    1.9316 H   0  0  0  0  0  0  0  0  0  0  0  0
   -3.2397   -0.0483    0.5806 H   0  0  0  0  0  0  0  0  0  0  0  0
   -3.2904   -1.2354   -0.7317 H   0  0  0  0  0  0  0  0  0  0  0  0
   -1.2400    2.3337    2.3887 H   0  0  0  0  0  0  0  0  0  0  0  0
   -1.8495    3.3488    1.0120 H   0  0  0  0  0  0  0  0  0  0  0  0
   -2.2521   -2.9357    0.8351 H   0  0  0  0  0  0  0  0  0  0  0  0
   -0.7136   -2.6019    1.6401 H   0  0  0  0  0  0  0  0  0  0  0  0
   -2.1754   -1.7251    2.1181 H   0  0  0  0  0  0  0  0  0  0  0  0
    0.2632   -2.2887   -0.6683 H   0  0  0  0  0  0  0  0  0  0  0  0
   -0.3743   -1.0626   -1.7804 H   0  0  0  0  0  0  0  0  0  0  0  0
   -1.3104   -2.5053   -1.4191 H   0  0  0  0  0  0  0  0  0  0  0  0
    1.2134   -1.2425    1.3081 H   0  0  0  0  0  0  0  0  0  0  0  0
    1.4421    0.3946    1.8555 H   0  0  0  0  0  0  0  0  0  0  0  0
    1.6400   -0.4292   -1.0876 H   0  0  0  0  0  0  0  0  0  0  0  0
    1.8878    1.1969   -0.4368 H   0  0  0  0  0  0  0  0  0  0  0  0
    4.1644   -0.0862   -1.9388 H   0  0  0  0  0  0  0  0  0  0  0  0
    5.4036    0.0339   -0.6678 H   0  0  0  0  0  0  0  0  0  0  0  0
    4.3368    1.4203   -0.9823 H   0  0  0  0  0  0  0  0  0  0  0  0
  1  6  1  0
  1 18  1  0
  2  1  1  0
  2  3  1  0
  3  4  1  0
  3 19  1  1
  4  5  1  0
  4 10  1  0
  5 21  1  0
  6  5  1  0
  7  6  2  0
  2  8  1  6
  9  8  1  0
  9  2  1  0
 10 24  1  0
 10 26  1  0
 11 29  1  0
 11  4  1  0
 12  3  1  0
 12 30  1  0
 13 12  1  0
 13 32  1  0
 14 15  1  0
 14 13  1  0
 15 34  1  0
 15 35  1  0
 16 14  2  0
 17  1  1  0
 20  5  1  0
 22  9  1  0
 23  9  1  0
 25 10  1  0
 27 11  1  0
 28 11  1  0
 31 12  1  0
 33 13  1  0
 36 15  1  0
M  END
$$$$
