
 OpenBabel11301904103D

 65 67  0  0  1  0  0  0  0  0999 V2000
    1.5240   -0.0475   -0.0663 C   0  0  0  0  0  0  0  0  0  0  0  0
    0.0884   -0.0156    0.0048 O   0  0  0  0  0  0  0  0  0  0  0  0
   -0.3817    0.6365    1.1113 C   0  0  0  0  0  0  0  0  0  0  0  0
   -0.6549   -0.0801    2.2932 C   0  0  0  0  0  0  0  0  0  0  0  0
   -1.1870    0.5815    3.4147 C   0  0  0  0  0  0  0  0  0  0  0  0
   -1.4644    1.9673    3.3697 C   0  0  0  0  0  0  0  0  0  0  0  0
   -1.1641    2.6823    2.1871 C   0  0  0  0  0  0  0  0  0  0  0  0
   -0.6332    2.0220    1.0646 C   0  0  0  0  0  0  0  0  0  0  0  0
   -2.0506    2.6600    4.5399 C   0  0  0  0  0  0  0  0  0  0  0  0
   -0.9730    3.1374    5.3637 O   0  0  0  0  0  0  0  0  0  0  0  0
   -1.4075    3.9367    6.4805 C   0  0  0  0  0  0  0  0  0  0  0  0
   -0.1846    4.2760    7.3855 C   0  0  2  0  0  0  0  0  0  0  0  0
    0.6182    3.0071    7.8792 C   0  0  1  0  0  0  0  0  0  0  0  0
   -0.2320    1.9601    8.6741 C   0  0  0  0  0  0  0  0  0  0  0  0
    0.5678    0.9999    9.4615 C   0  0  0  0  0  0  0  0  0  0  0  0
    1.9007    1.1725    9.6786 O   0  0  0  0  0  0  0  0  0  0  0  0
    1.9250    3.3778    8.6483 C   0  0  0  0  0  0  0  0  0  0  0  0
    2.7674    2.1207    9.0309 C   0  0  2  0  0  0  0  0  0  0  0  0
    3.5781    1.3977    7.8890 C   0  0  1  0  0  0  0  0  0  0  0  0
    4.4017    0.1951    8.4485 C   0  0  0  0  0  0  0  0  0  0  0  0
    3.5400   -0.8044    9.0227 O   0  0  0  0  0  0  0  0  0  0  0  0
    4.2224   -1.8414    9.7476 C   0  0  0  0  0  0  0  0  0  0  0  0
    3.1959   -2.6218   10.4741 C   0  0  0  0  0  0  0  0  0  0  0  0
    2.9515   -2.3932   11.8487 C   0  0  0  0  0  0  0  0  0  0  0  0
    1.9438   -3.1031   12.5248 C   0  0  0  0  0  0  0  0  0  0  0  0
    1.1722   -4.0547   11.8359 C   0  0  0  0  0  0  0  0  0  0  0  0
    1.4125   -4.3009   10.4727 C   0  0  0  0  0  0  0  0  0  0  0  0
    2.4167   -3.5863    9.7948 C   0  0  0  0  0  0  0  0  0  0  0  0
    4.5433    2.3486    7.1201 C   0  0  0  0  0  0  0  0  0  0  0  0
   -0.6365    5.2460    8.5182 C   0  0  0  0  0  0  0  0  0  0  0  0
    0.9594    2.4944    6.9745 H   0  0  0  0  0  0  0  0  0  0  0  0
    0.0159    0.0154   10.0010 O   0  0  0  0  0  0  0  0  0  0  0  0
    1.9446    0.9599   -0.1169 H   0  0  0  0  0  0  0  0  0  0  0  0
    1.8039   -0.5780   -0.9762 H   0  0  0  0  0  0  0  0  0  0  0  0
    1.9541   -0.5810    0.7851 H   0  0  0  0  0  0  0  0  0  0  0  0
   -0.4689   -1.0847    2.3368 H   0  0  0  0  0  0  0  0  0  0  0  0
   -1.3741    0.0422    4.2632 H   0  0  0  0  0  0  0  0  0  0  0  0
   -1.3344    3.6892    2.1320 H   0  0  0  0  0  0  0  0  0  0  0  0
   -0.4319    2.5500    0.2121 H   0  0  0  0  0  0  0  0  0  0  0  0
   -2.6856    3.4856    4.2034 H   0  0  0  0  0  0  0  0  0  0  0  0
   -2.6800    1.9700    5.1095 H   0  0  0  0  0  0  0  0  0  0  0  0
   -1.7825    4.9173    6.0424 H   0  0  0  0  0  0  0  0  0  0  0  0
   -2.1398    3.3316    7.1038 H   0  0  0  0  0  0  0  0  0  0  0  0
    0.5026    4.8481    6.7543 H   0  0  0  0  0  0  0  0  0  0  0  0
   -0.8999    2.4590    9.3741 H   0  0  0  0  0  0  0  0  0  0  0  0
   -0.8478    1.3932    7.9704 H   0  0  0  0  0  0  0  0  0  0  0  0
    1.6522    3.8800    9.5800 H   0  0  0  0  0  0  0  0  0  0  0  0
    2.5243    4.0795    8.0684 H   0  0  0  0  0  0  0  0  0  0  0  0
    3.4858    2.4533    9.7873 H   0  0  0  0  0  0  0  0  0  0  0  0
    2.8666    0.9930    7.1613 H   0  0  0  0  0  0  0  0  0  0  0  0
    4.9737   -0.2743    7.6438 H   0  0  0  0  0  0  0  0  0  0  0  0
    5.1038    0.5770    9.1958 H   0  0  0  0  0  0  0  0  0  0  0  0
    4.9375   -1.4126   10.4562 H   0  0  0  0  0  0  0  0  0  0  0  0
    4.7774   -2.4854    9.0605 H   0  0  0  0  0  0  0  0  0  0  0  0
    3.4990   -1.7020   12.3662 H   0  0  0  0  0  0  0  0  0  0  0  0
    1.7712   -2.9247   13.5161 H   0  0  0  0  0  0  0  0  0  0  0  0
    0.4374   -4.5672   12.3262 H   0  0  0  0  0  0  0  0  0  0  0  0
    0.8558   -4.9977    9.9738 H   0  0  0  0  0  0  0  0  0  0  0  0
    2.5751   -3.7739    8.8024 H   0  0  0  0  0  0  0  0  0  0  0  0
    5.2034    2.8722    7.8146 H   0  0  0  0  0  0  0  0  0  0  0  0
    5.1630    1.7864    6.4173 H   0  0  0  0  0  0  0  0  0  0  0  0
    3.9830    3.0830    6.5412 H   0  0  0  0  0  0  0  0  0  0  0  0
    0.2161    5.6106    9.0894 H   0  0  0  0  0  0  0  0  0  0  0  0
   -1.3327    4.7564    9.1996 H   0  0  0  0  0  0  0  0  0  0  0  0
   -1.1328    6.1216    8.0942 H   0  0  0  0  0  0  0  0  0  0  0  0
  1  2  1  0  0  0  0
  1 35  1  0  0  0  0
  2  3  1  0  0  0  0
  3  4  1  0  0  0  0
  4 36  1  0  0  0  0
  4  5  2  0  0  0  0
  5 37  1  0  0  0  0
  6  5  1  0  0  0  0
  6  9  1  0  0  0  0
  7  6  2  0  0  0  0
  8  3  2  0  0  0  0
  8  7  1  0  0  0  0
  9 41  1  0  0  0  0
  9 10  1  0  0  0  0
 10 11  1  0  0  0  0
 11 43  1  0  0  0  0
 11 12  1  0  0  0  0
 12 44  1  6  0  0  0
 12 13  1  0  0  0  0
 12 30  1  0  0  0  0
 13 31  1  6  0  0  0
 13 17  1  0  0  0  0
 13 14  1  0  0  0  0
 14 45  1  0  0  0  0
 14 15  1  0  0  0  0
 15 16  1  0  0  0  0
 15 32  2  0  0  0  0
 17 18  1  0  0  0  0
 17 47  1  0  0  0  0
 18 16  1  0  0  0  0
 18 49  1  1  0  0  0
 19 50  1  6  0  0  0
 19 20  1  0  0  0  0
 19 18  1  0  0  0  0
 20 21  1  0  0  0  0
 20 52  1  0  0  0  0
 21 22  1  0  0  0  0
 22 53  1  0  0  0  0
 22 23  1  0  0  0  0
 23 24  2  0  0  0  0
 24 55  1  0  0  0  0
 24 25  1  0  0  0  0
 25 56  1  0  0  0  0
 26 57  1  0  0  0  0
 26 25  2  0  0  0  0
 27 26  1  0  0  0  0
 28 27  2  0  0  0  0
 28 23  1  0  0  0  0
 29 60  1  0  0  0  0
 29 19  1  0  0  0  0
 30 63  1  0  0  0  0
 30 64  1  0  0  0  0
 33  1  1  0  0  0  0
 34  1  1  0  0  0  0
 38  7  1  0  0  0  0
 39  8  1  0  0  0  0
 40  9  1  0  0  0  0
 42 11  1  0  0  0  0
 46 14  1  0  0  0  0
 48 17  1  0  0  0  0
 51 20  1  0  0  0  0
 54 22  1  0  0  0  0
 58 27  1  0  0  0  0
 59 28  1  0  0  0  0
 61 29  1  0  0  0  0
 62 29  1  0  0  0  0
 65 30  1  0  0  0  0
M  END
$$$$
