
 OpenBabel11301904113D

 65 67  0  0  1  0  0  0  0  0999 V2000
    1.5300   -0.0377   -0.0664 C   0  0  0  0  0  0  0  0  0  0  0  0
    0.0937    0.0066   -0.0192 O   0  0  0  0  0  0  0  0  0  0  0  0
   -0.4009    0.6529    1.0829 C   0  0  0  0  0  0  0  0  0  0  0  0
   -0.6962   -0.0674    2.2559 C   0  0  0  0  0  0  0  0  0  0  0  0
   -1.2658    0.5843    3.3657 C   0  0  0  0  0  0  0  0  0  0  0  0
   -1.5506    1.9710    3.3223 C   0  0  0  0  0  0  0  0  0  0  0  0
   -1.2297    2.6901    2.1465 C   0  0  0  0  0  0  0  0  0  0  0  0
   -0.6636    2.0363    1.0350 C   0  0  0  0  0  0  0  0  0  0  0  0
   -2.1645    2.6683    4.4824 C   0  0  0  0  0  0  0  0  0  0  0  0
   -1.1236    3.3601    5.1979 O   0  0  0  0  0  0  0  0  0  0  0  0
   -1.4775    3.8219    6.5167 C   0  0  0  0  0  0  0  0  0  0  0  0
   -0.2088    4.2646    7.3226 C   0  0  2  0  0  0  0  0  0  0  0  0
    0.7619    3.0740    7.7295 C   0  0  2  0  0  0  0  0  0  0  0  0
    1.3547    2.2512    6.5320 C   0  0  0  0  0  0  0  0  0  0  0  0
    2.3407    3.0612    5.7871 C   0  0  0  0  0  0  0  0  0  0  0  0
    3.2401    3.8209    6.4808 O   0  0  0  0  0  0  0  0  0  0  0  0
    1.9967    3.4882    8.6107 C   0  0  0  0  0  0  0  0  0  0  0  0
    3.0124    4.3617    7.8027 C   0  0  1  0  0  0  0  0  0  0  0  0
    4.3670    4.6720    8.5283 C   0  0  1  0  0  0  0  0  0  0  0  0
    5.3084    5.5459    7.6435 C   0  0  0  0  0  0  0  0  0  0  0  0
    4.6554    6.7523    7.1927 O   0  0  0  0  0  0  0  0  0  0  0  0
    5.4671    7.5585    6.3161 C   0  0  0  0  0  0  0  0  0  0  0  0
    4.7158    8.7737    5.9182 C   0  0  0  0  0  0  0  0  0  0  0  0
    3.9351    8.7863    4.7377 C   0  0  0  0  0  0  0  0  0  0  0  0
    3.2493    9.9507    4.3432 C   0  0  0  0  0  0  0  0  0  0  0  0
    3.3272   11.1140    5.1294 C   0  0  0  0  0  0  0  0  0  0  0  0
    4.0883   11.1120    6.3119 C   0  0  0  0  0  0  0  0  0  0  0  0
    4.7735    9.9474    6.7071 C   0  0  0  0  0  0  0  0  0  0  0  0
    5.1333    3.4035    9.0086 C   0  0  0  0  0  0  0  0  0  0  0  0
   -0.6906    5.0650    8.5748 C   0  0  0  0  0  0  0  0  0  0  0  0
    0.1708    2.3714    8.3272 H   0  0  0  0  0  0  0  0  0  0  0  0
    2.3889    3.0521    4.5360 O   0  0  0  0  0  0  0  0  0  0  0  0
    1.9586    0.9661   -0.1134 H   0  0  0  0  0  0  0  0  0  0  0  0
    1.8211   -0.5734   -0.9700 H   0  0  0  0  0  0  0  0  0  0  0  0
    1.9410   -0.5726    0.7930 H   0  0  0  0  0  0  0  0  0  0  0  0
   -0.5009   -1.0693    2.3013 H   0  0  0  0  0  0  0  0  0  0  0  0
   -1.4706    0.0394    4.2071 H   0  0  0  0  0  0  0  0  0  0  0  0
   -1.4138    3.6939    2.0907 H   0  0  0  0  0  0  0  0  0  0  0  0
   -0.4488    2.5671    0.1908 H   0  0  0  0  0  0  0  0  0  0  0  0
   -2.9234    3.3745    4.1402 H   0  0  0  0  0  0  0  0  0  0  0  0
   -2.6654    1.9398    5.1267 H   0  0  0  0  0  0  0  0  0  0  0  0
   -2.1180    4.7441    6.3365 H   0  0  0  0  0  0  0  0  0  0  0  0
   -1.9427    2.9642    7.0987 H   0  0  0  0  0  0  0  0  0  0  0  0
    0.3421    4.9672    6.6917 H   0  0  0  0  0  0  0  0  0  0  0  0
    1.8773    1.3756    6.9251 H   0  0  0  0  0  0  0  0  0  0  0  0
    0.5880    1.8538    5.8710 H   0  0  0  0  0  0  0  0  0  0  0  0
    2.4887    2.5714    8.9414 H   0  0  0  0  0  0  0  0  0  0  0  0
    1.6932    3.9996    9.5241 H   0  0  0  0  0  0  0  0  0  0  0  0
    2.5243    5.3277    7.6458 H   0  0  0  0  0  0  0  0  0  0  0  0
    4.1313    5.2565    9.4242 H   0  0  0  0  0  0  0  0  0  0  0  0
    6.1914    5.8202    8.2293 H   0  0  0  0  0  0  0  0  0  0  0  0
    5.6368    4.9522    6.7847 H   0  0  0  0  0  0  0  0  0  0  0  0
    5.7434    6.9868    5.4244 H   0  0  0  0  0  0  0  0  0  0  0  0
    6.3950    7.8483    6.8182 H   0  0  0  0  0  0  0  0  0  0  0  0
    3.8637    7.9484    4.1550 H   0  0  0  0  0  0  0  0  0  0  0  0
    2.6953    9.9519    3.4837 H   0  0  0  0  0  0  0  0  0  0  0  0
    2.8302   11.9605    4.8418 H   0  0  0  0  0  0  0  0  0  0  0  0
    4.1450   11.9582    6.8834 H   0  0  0  0  0  0  0  0  0  0  0  0
    5.3198    9.9636    7.5721 H   0  0  0  0  0  0  0  0  0  0  0  0
    5.3044    2.7191    8.1767 H   0  0  0  0  0  0  0  0  0  0  0  0
    6.0986    3.6768    9.4385 H   0  0  0  0  0  0  0  0  0  0  0  0
    4.5785    2.8813    9.7877 H   0  0  0  0  0  0  0  0  0  0  0  0
    0.1390    5.5748    9.0640 H   0  0  0  0  0  0  0  0  0  0  0  0
   -1.1675    4.3985    9.2957 H   0  0  0  0  0  0  0  0  0  0  0  0
   -1.4049    5.8407    8.2984 H   0  0  0  0  0  0  0  0  0  0  0  0
  1  2  1  0  0  0  0
  1 35  1  0  0  0  0
  2  3  1  0  0  0  0
  3  4  1  0  0  0  0
  4 36  1  0  0  0  0
  4  5  2  0  0  0  0
  5 37  1  0  0  0  0
  6  5  1  0  0  0  0
  6  9  1  0  0  0  0
  7  6  2  0  0  0  0
  8  3  2  0  0  0  0
  8  7  1  0  0  0  0
  9 41  1  0  0  0  0
  9 10  1  0  0  0  0
 10 11  1  0  0  0  0
 11 43  1  0  0  0  0
 11 12  1  0  0  0  0
 12 44  1  6  0  0  0
 12 13  1  0  0  0  0
 12 30  1  0  0  0  0
 13 31  1  1  0  0  0
 13 17  1  0  0  0  0
 14 45  1  0  0  0  0
 14 13  1  0  0  0  0
 15 16  1  0  0  0  0
 15 14  1  0  0  0  0
 16 18  1  0  0  0  0
 17 47  1  0  0  0  0
 17 48  1  0  0  0  0
 18 49  1  6  0  0  0
 18 19  1  0  0  0  0
 18 17  1  0  0  0  0
 19 29  1  0  0  0  0
 19 50  1  1  0  0  0
 20 51  1  0  0  0  0
 20 19  1  0  0  0  0
 21 20  1  0  0  0  0
 22 54  1  0  0  0  0
 22 21  1  0  0  0  0
 23 22  1  0  0  0  0
 23 28  2  0  0  0  0
 24 23  1  0  0  0  0
 25 24  2  0  0  0  0
 25 26  1  0  0  0  0
 26 27  2  0  0  0  0
 27 28  1  0  0  0  0
 27 58  1  0  0  0  0
 28 59  1  0  0  0  0
 29 61  1  0  0  0  0
 29 62  1  0  0  0  0
 30 63  1  0  0  0  0
 30 64  1  0  0  0  0
 32 15  2  0  0  0  0
 33  1  1  0  0  0  0
 34  1  1  0  0  0  0
 38  7  1  0  0  0  0
 39  8  1  0  0  0  0
 40  9  1  0  0  0  0
 42 11  1  0  0  0  0
 46 14  1  0  0  0  0
 52 20  1  0  0  0  0
 53 22  1  0  0  0  0
 55 24  1  0  0  0  0
 56 25  1  0  0  0  0
 57 26  1  0  0  0  0
 60 29  1  0  0  0  0
 65 30  1  0  0  0  0
M  END
$$$$
