
 OpenBabel11301903563D

 51 51  0  0  1  0  0  0  0  0999 V2000
    2.1695    0.2883   -5.6679 C   0  0  2  0  0  0  0  0  0  0  0  0
    2.7287    0.1491   -4.3241 C   0  0  0  0  0  0  0  0  0  0  0  0
    2.0049   -0.8120   -3.4857 C   0  0  2  0  0  0  0  0  0  0  0  0
    0.9598   -1.2088   -4.3564 N   0  0  0  0  0  0  0  0  0  0  0  0
    1.0057   -0.6016   -5.5445 C   0  0  0  0  0  0  0  0  0  0  0  0
    0.1337   -0.7881   -6.4226 O   0  0  0  0  0  0  0  0  0  0  0  0
    3.7922    0.8472   -3.8864 C   0  0  0  0  0  0  0  0  0  0  0  0
    3.1537   -0.1365   -6.8049 C   0  0  0  0  0  0  0  0  0  0  0  0
    2.6828    0.1260   -8.1829 C   0  0  0  0  0  0  0  0  0  0  0  0
    1.7598   -0.5560   -8.6815 O   0  0  0  0  0  0  0  0  0  0  0  0
    3.1978    1.1551   -8.9224 O   0  0  0  0  0  0  0  0  0  0  0  0
    4.3038    1.1209   -9.8548 C   0  0  0  0  0  0  0  0  0  0  0  0
    4.3022    2.5122  -10.5541 C   0  0  0  0  0  0  0  0  0  0  0  0
    4.1285    0.0009  -10.9253 C   0  0  0  0  0  0  0  0  0  0  0  0
    5.6343    0.9167   -9.0681 C   0  0  0  0  0  0  0  0  0  0  0  0
    2.8690   -2.0685   -3.1492 C   0  0  0  0  0  0  0  0  0  0  0  0
    3.3954   -2.6940   -4.3195 O   0  0  0  0  0  0  0  0  0  0  0  0
    1.4035   -0.1330   -2.2942 C   0  0  0  0  0  0  0  0  0  0  0  0
    0.5846    0.8001   -2.4783 O   0  0  0  0  0  0  0  0  0  0  0  0
    1.7464   -0.4963   -1.0138 O   0  0  0  0  0  0  0  0  0  0  0  0
    1.3768    0.0909    0.2587 C   0  0  0  0  0  0  0  0  0  0  0  0
   -0.1679    0.0580    0.4804 C   0  0  0  0  0  0  0  0  0  0  0  0
    1.9298    1.5473    0.3414 C   0  0  0  0  0  0  0  0  0  0  0  0
    2.0750   -0.7856    1.3408 C   0  0  0  0  0  0  0  0  0  0  0  0
    1.8329    1.3201   -5.8107 H   0  0  0  0  0  0  0  0  0  0  0  0
    0.2730   -1.8491   -4.1070 H   0  0  0  0  0  0  0  0  0  0  0  0
    4.1362    0.7279   -2.9638 H   0  0  0  0  0  0  0  0  0  0  0  0
    4.2555    1.4991   -4.4714 H   0  0  0  0  0  0  0  0  0  0  0  0
    4.0870    0.4107   -6.6745 H   0  0  0  0  0  0  0  0  0  0  0  0
    3.3919   -1.1995   -6.7176 H   0  0  0  0  0  0  0  0  0  0  0  0
    5.1332    2.6034  -11.2585 H   0  0  0  0  0  0  0  0  0  0  0  0
    3.3702    2.6596  -11.1042 H   0  0  0  0  0  0  0  0  0  0  0  0
    4.3857    3.3137   -9.8175 H   0  0  0  0  0  0  0  0  0  0  0  0
    4.1393   -0.9841  -10.4544 H   0  0  0  0  0  0  0  0  0  0  0  0
    3.1771    0.1215  -11.4473 H   0  0  0  0  0  0  0  0  0  0  0  0
    4.9374    0.0345  -11.6603 H   0  0  0  0  0  0  0  0  0  0  0  0
    5.7340    1.6770   -8.2892 H   0  0  0  0  0  0  0  0  0  0  0  0
    5.6485   -0.0656   -8.5923 H   0  0  0  0  0  0  0  0  0  0  0  0
    6.5009    0.9796   -9.7293 H   0  0  0  0  0  0  0  0  0  0  0  0
    3.7119   -1.7936   -2.5112 H   0  0  0  0  0  0  0  0  0  0  0  0
    2.2628   -2.8063   -2.6196 H   0  0  0  0  0  0  0  0  0  0  0  0
    3.9448   -3.4348   -3.9872 H   0  0  0  0  0  0  0  0  0  0  0  0
   -0.5524   -0.9499    0.3010 H   0  0  0  0  0  0  0  0  0  0  0  0
   -0.4196    0.3520    1.5033 H   0  0  0  0  0  0  0  0  0  0  0  0
   -0.6789    0.7441   -0.1971 H   0  0  0  0  0  0  0  0  0  0  0  0
    1.4546    2.1869   -0.4040 H   0  0  0  0  0  0  0  0  0  0  0  0
    3.0075    1.5516    0.1545 H   0  0  0  0  0  0  0  0  0  0  0  0
    1.7418    1.9811    1.3275 H   0  0  0  0  0  0  0  0  0  0  0  0
    1.7199   -1.8171    1.2834 H   0  0  0  0  0  0  0  0  0  0  0  0
    1.8713   -0.4058    2.3465 H   0  0  0  0  0  0  0  0  0  0  0  0
    3.1571   -0.7928    1.1897 H   0  0  0  0  0  0  0  0  0  0  0  0
  1 25  1  6  0  0  0
  1  5  1  0  0  0  0
  1  2  1  0  0  0  0
  2  7  2  0  0  0  0
  2  3  1  0  0  0  0
  3 16  1  0  0  0  0
  3 18  1  1  0  0  0
  4 26  1  0  0  0  0
  4  3  1  0  0  0  0
  5  4  1  0  0  0  0
  6  5  2  0  0  0  0
  7 27  1  0  0  0  0
  8 30  1  0  0  0  0
  8 29  1  0  0  0  0
  8  1  1  0  0  0  0
  9  8  1  0  0  0  0
 10  9  2  0  0  0  0
 11  9  1  0  0  0  0
 12 15  1  0  0  0  0
 12 11  1  0  0  0  0
 13 12  1  0  0  0  0
 13 33  1  0  0  0  0
 14 34  1  0  0  0  0
 14 12  1  0  0  0  0
 15 38  1  0  0  0  0
 15 37  1  0  0  0  0
 16 41  1  0  0  0  0
 16 40  1  0  0  0  0
 17 42  1  0  0  0  0
 17 16  1  0  0  0  0
 18 20  1  0  0  0  0
 19 18  2  0  0  0  0
 20 21  1  0  0  0  0
 21 23  1  0  0  0  0
 21 22  1  0  0  0  0
 21 24  1  0  0  0  0
 22 44  1  0  0  0  0
 23 48  1  0  0  0  0
 24 50  1  0  0  0  0
 28  7  1  0  0  0  0
 31 13  1  0  0  0  0
 32 13  1  0  0  0  0
 35 14  1  0  0  0  0
 36 14  1  0  0  0  0
 39 15  1  0  0  0  0
 43 22  1  0  0  0  0
 45 22  1  0  0  0  0
 46 23  1  0  0  0  0
 47 23  1  0  0  0  0
 49 24  1  0  0  0  0
 51 24  1  0  0  0  0
M  END
$$$$
