
 OpenBabel11301903563D

 51 51  0  0  1  0  0  0  0  0999 V2000
    0.9219   -0.4320   -5.6349 C   0  0  2  0  0  0  0  0  0  0  0  0
    1.0306   -1.2101   -4.4038 C   0  0  0  0  0  0  0  0  0  0  0  0
    2.1554   -0.8050   -3.5541 C   0  0  1  0  0  0  0  0  0  0  0  0
    2.8347    0.0905   -4.4243 N   0  0  0  0  0  0  0  0  0  0  0  0
    2.1949    0.2971   -5.5791 C   0  0  0  0  0  0  0  0  0  0  0  0
    2.6532    1.0276   -6.4852 O   0  0  0  0  0  0  0  0  0  0  0  0
    0.1645   -2.1853   -4.0780 C   0  0  0  0  0  0  0  0  0  0  0  0
   -0.3371    0.4894   -5.6385 C   0  0  0  0  0  0  0  0  0  0  0  0
   -0.5588    1.2591   -6.8773 C   0  0  0  0  0  0  0  0  0  0  0  0
    0.1391    2.2624   -7.1466 O   0  0  0  0  0  0  0  0  0  0  0  0
   -1.4999    0.8597   -7.7800 O   0  0  0  0  0  0  0  0  0  0  0  0
   -2.8744    1.2944   -7.8804 C   0  0  0  0  0  0  0  0  0  0  0  0
   -3.4248    0.6408   -9.1805 C   0  0  0  0  0  0  0  0  0  0  0  0
   -2.9891    2.8446   -7.9820 C   0  0  0  0  0  0  0  0  0  0  0  0
   -3.6731    0.7752   -6.6479 C   0  0  0  0  0  0  0  0  0  0  0  0
    3.1155   -1.9878   -3.2059 C   0  0  0  0  0  0  0  0  0  0  0  0
    3.5515   -2.6940   -4.3673 O   0  0  0  0  0  0  0  0  0  0  0  0
    1.6788   -0.0381   -2.3610 C   0  0  0  0  0  0  0  0  0  0  0  0
    1.0411    1.0259   -2.5420 O   0  0  0  0  0  0  0  0  0  0  0  0
    1.9197   -0.4582   -1.0766 O   0  0  0  0  0  0  0  0  0  0  0  0
    1.4856    0.1148    0.1837 C   0  0  0  0  0  0  0  0  0  0  0  0
   -0.0706    0.0812    0.2960 C   0  0  0  0  0  0  0  0  0  0  0  0
    2.0117    1.5738    0.3642 C   0  0  0  0  0  0  0  0  0  0  0  0
    2.1029   -0.7952    1.2867 C   0  0  0  0  0  0  0  0  0  0  0  0
    0.9132   -1.1010   -6.5014 H   0  0  0  0  0  0  0  0  0  0  0  0
    3.6852    0.5064   -4.2073 H   0  0  0  0  0  0  0  0  0  0  0  0
    0.2559   -2.6817   -3.2256 H   0  0  0  0  0  0  0  0  0  0  0  0
   -0.5828   -2.4311   -4.6827 H   0  0  0  0  0  0  0  0  0  0  0  0
   -1.2174   -0.1368   -5.4851 H   0  0  0  0  0  0  0  0  0  0  0  0
   -0.2951    1.1962   -4.8089 H   0  0  0  0  0  0  0  0  0  0  0  0
   -4.4810    0.8826   -9.3233 H   0  0  0  0  0  0  0  0  0  0  0  0
   -2.8694    0.9975  -10.0506 H   0  0  0  0  0  0  0  0  0  0  0  0
   -3.3214   -0.4457   -9.1373 H   0  0  0  0  0  0  0  0  0  0  0  0
   -2.6208    3.3179   -7.0692 H   0  0  0  0  0  0  0  0  0  0  0  0
   -2.4005    3.2169   -8.8225 H   0  0  0  0  0  0  0  0  0  0  0  0
   -4.0309    3.1429   -8.1267 H   0  0  0  0  0  0  0  0  0  0  0  0
   -3.5531   -0.3064   -6.5480 H   0  0  0  0  0  0  0  0  0  0  0  0
   -3.3124    1.2473   -5.7315 H   0  0  0  0  0  0  0  0  0  0  0  0
   -4.7367    0.9993   -6.7466 H   0  0  0  0  0  0  0  0  0  0  0  0
    4.0009   -1.6077   -2.6925 H   0  0  0  0  0  0  0  0  0  0  0  0
    2.6237   -2.7028   -2.5412 H   0  0  0  0  0  0  0  0  0  0  0  0
    4.1645   -3.3806   -4.0285 H   0  0  0  0  0  0  0  0  0  0  0  0
   -0.4431   -0.9348    0.1460 H   0  0  0  0  0  0  0  0  0  0  0  0
   -0.3938    0.4277    1.2816 H   0  0  0  0  0  0  0  0  0  0  0  0
   -0.5347    0.7254   -0.4533 H   0  0  0  0  0  0  0  0  0  0  0  0
    1.5494    2.2564   -0.3522 H   0  0  0  0  0  0  0  0  0  0  0  0
    3.0938    1.6080    0.2183 H   0  0  0  0  0  0  0  0  0  0  0  0
    1.7826    1.9443    1.3678 H   0  0  0  0  0  0  0  0  0  0  0  0
    1.7463   -1.8226    1.1795 H   0  0  0  0  0  0  0  0  0  0  0  0
    1.8349   -0.4404    2.2863 H   0  0  0  0  0  0  0  0  0  0  0  0
    3.1924   -0.8041    1.2056 H   0  0  0  0  0  0  0  0  0  0  0  0
  1 25  1  6  0  0  0
  1  5  1  0  0  0  0
  1  2  1  0  0  0  0
  2  7  2  0  0  0  0
  2  3  1  0  0  0  0
  3 16  1  0  0  0  0
  3 18  1  1  0  0  0
  4 26  1  0  0  0  0
  4  3  1  0  0  0  0
  5  4  1  0  0  0  0
  6  5  2  0  0  0  0
  7 27  1  0  0  0  0
  8  1  1  0  0  0  0
  8 29  1  0  0  0  0
  8 30  1  0  0  0  0
  9  8  1  0  0  0  0
 10  9  2  0  0  0  0
 11  9  1  0  0  0  0
 12 11  1  0  0  0  0
 12 15  1  0  0  0  0
 13 33  1  0  0  0  0
 13 12  1  0  0  0  0
 14 12  1  0  0  0  0
 14 34  1  0  0  0  0
 15 37  1  0  0  0  0
 15 38  1  0  0  0  0
 16 40  1  0  0  0  0
 16 41  1  0  0  0  0
 17 42  1  0  0  0  0
 17 16  1  0  0  0  0
 18 20  1  0  0  0  0
 19 18  2  0  0  0  0
 20 21  1  0  0  0  0
 21 22  1  0  0  0  0
 21 23  1  0  0  0  0
 21 24  1  0  0  0  0
 22 44  1  0  0  0  0
 23 48  1  0  0  0  0
 24 50  1  0  0  0  0
 28  7  1  0  0  0  0
 31 13  1  0  0  0  0
 32 13  1  0  0  0  0
 35 14  1  0  0  0  0
 36 14  1  0  0  0  0
 39 15  1  0  0  0  0
 43 22  1  0  0  0  0
 45 22  1  0  0  0  0
 46 23  1  0  0  0  0
 47 23  1  0  0  0  0
 49 24  1  0  0  0  0
 51 24  1  0  0  0  0
M  END
$$$$
