S21
     RDKit          3D

 26 27  0  0  1  0  0  0  0  0999 V2000
   -3.4074   -0.9108    0.7839 C   0  0  0  0  0  0  0  0  0  0  0  0
   -2.0341   -0.6994    0.9316 C   0  0  0  0  0  0  0  0  0  0  0  0
   -1.3596    0.1805    0.0740 C   0  0  0  0  0  0  0  0  0  0  0  0
   -2.0782    0.8481   -0.9269 C   0  0  0  0  0  0  0  0  0  0  0  0
   -3.4507    0.6343   -1.0721 C   0  0  0  0  0  0  0  0  0  0  0  0
   -4.1135   -0.2453   -0.2176 C   0  0  0  0  0  0  0  0  0  0  0  0
    0.0994    0.4298    0.1960 C   0  0  0  0  0  0  0  0  0  0  0  0
    0.7259    1.3247   -0.4824 N   0  0  0  0  0  0  0  0  0  0  0  0
    2.1257    1.5812   -0.1480 C   0  0  0  0  0  0  0  0  0  0  0  0
    3.0371    0.4439   -0.5867 C   0  0  0  0  0  0  0  0  0  0  0  0
    2.9891   -0.7424    0.3731 C   0  0  0  0  0  0  0  0  0  0  0  0
    1.5943   -1.3314    0.5006 C   0  0  0  0  0  0  0  0  0  0  0  0
    0.6837   -0.3969    1.0946 O   0  0  0  0  0  0  0  0  0  0  0  0
   -3.9264   -1.5926    1.4530 H   0  0  0  0  0  0  0  0  0  0  0  0
   -1.5041   -1.2212    1.7240 H   0  0  0  0  0  0  0  0  0  0  0  0
   -1.5713    1.5384   -1.5981 H   0  0  0  0  0  0  0  0  0  0  0  0
   -4.0007    1.1564   -1.8510 H   0  0  0  0  0  0  0  0  0  0  0  0
   -5.1823   -0.4096   -0.3301 H   0  0  0  0  0  0  0  0  0  0  0  0
    2.2430    1.8060    0.9195 H   0  0  0  0  0  0  0  0  0  0  0  0
    2.4226    2.4903   -0.6838 H   0  0  0  0  0  0  0  0  0  0  0  0
    2.7784    0.1166   -1.6010 H   0  0  0  0  0  0  0  0  0  0  0  0
    4.0697    0.8114   -0.6212 H   0  0  0  0  0  0  0  0  0  0  0  0
    3.3379   -0.4150    1.3601 H   0  0  0  0  0  0  0  0  0  0  0  0
    3.6801   -1.5166    0.0211 H   0  0  0  0  0  0  0  0  0  0  0  0
    1.2164   -1.6740   -0.4713 H   0  0  0  0  0  0  0  0  0  0  0  0
    1.6249   -2.2065    1.1584 H   0  0  0  0  0  0  0  0  0  0  0  0
  1  2  2  0
  1  6  1  0
  1 14  1  0
  2  3  1  0
  2 15  1  0
  3  4  2  0
  3  7  1  0
  4  5  1  0
  4 16  1  0
  5  6  2  0
  5 17  1  0
  6 18  1  0
  7 13  1  0
  7  8  2  0
  8  9  1  0
  9 10  1  0
  9 19  1  0
  9 20  1  0
 10 11  1  0
 10 21  1  0
 10 22  1  0
 11 12  1  0
 11 23  1  0
 11 24  1  0
 12 13  1  0
 12 25  1  0
 12 26  1  0
M  END
$$$$
