S15_1.sdf
     RDKit          3D

 19 20  0  0  1  0  0  0  0  0999 V2000
    2.1657    0.2414   -0.2521 C   0  0  0  0  0  0  0  0  0  0  0  0
    1.0874   -0.0775   -1.2334 C   0  0  0  0  0  0  0  0  0  0  0  0
    0.2316    0.9651   -1.3227 C   0  0  0  0  0  0  0  0  0  0  0  0
   -1.0111    0.8206   -0.4751 C   0  0  1  0  0  0  0  0  0  0  0  0
   -0.6953    0.0458    0.8570 C   0  0  2  0  0  0  0  0  0  0  0  0
    0.4662   -0.9864    0.6834 C   0  0  2  0  0  0  0  0  0  0  0  0
    1.7463   -0.3432    0.9211 O   0  0  0  0  0  0  0  0  0  0  0  0
    0.5846   -1.4087   -0.7643 C   0  0  0  0  0  0  0  0  0  0  0  0
    3.1764    0.8854   -0.4342 O   0  0  0  0  0  0  0  0  0  0  0  0
   -1.5051    2.1181   -0.1623 O   0  0  0  0  0  0  0  0  0  0  0  0
   -1.8930   -0.6249    1.2738 O   0  0  0  0  0  0  0  0  0  0  0  0
    0.6140    1.9799   -1.4347 H   0  0  0  0  0  0  0  0  0  0  0  0
   -1.7931    0.3150   -1.0546 H   0  0  0  0  0  0  0  0  0  0  0  0
   -0.4413    0.7654    1.6457 H   0  0  0  0  0  0  0  0  0  0  0  0
    0.3633   -1.8423    1.3576 H   0  0  0  0  0  0  0  0  0  0  0  0
   -0.3584   -1.7292   -1.2159 H   0  0  0  0  0  0  0  0  0  0  0  0
    1.3444   -2.1822   -0.9218 H   0  0  0  0  0  0  0  0  0  0  0  0
   -2.3282    1.9771    0.3401 H   0  0  0  0  0  0  0  0  0  0  0  0
   -1.7545   -0.9194    2.1927 H   0  0  0  0  0  0  0  0  0  0  0  0
  1  2  1  0
  1  7  1  0
  1  9  2  0
  2  3  2  0
  2  8  1  0
  3  4  1  0
  3 12  1  0
  4  5  1  0
  4 10  1  0
  4 13  1  6
  5  6  1  0
  5 11  1  0
  5 14  1  1
  6  7  1  0
  6  8  1  0
  6 15  1  1
  8 16  1  0
  8 17  1  0
 10 18  1  0
 11 19  1  0
M  END
$$$$
