
     RDKit          3D

 22 22  0  0  1  0  0  0  0  0999 V2000
   -1.6305    0.2208    0.0362 C   0  0  1  0  0  0  0  0  0  0  0  0
   -0.6431    1.3626    0.3101 C   0  0  1  0  0  0  0  0  0  0  0  0
    0.6398    1.1945   -0.5096 C   0  0  0  0  0  0  0  0  0  0  0  0
    1.1602   -0.2201   -0.5243 C   0  0  0  0  0  0  0  0  0  0  0  0
    0.4219   -1.2693   -0.1123 C   0  0  0  0  0  0  0  0  0  0  0  0
   -0.9933   -1.1439    0.3566 C   0  0  1  0  0  0  0  0  0  0  0  0
    2.5509   -0.3834   -1.0072 C   0  0  0  0  0  0  0  0  0  0  0  0
    2.9863   -1.6537   -0.9688 O   0  0  0  0  0  0  0  0  0  0  0  0
    3.2685    0.5132   -1.4110 O   0  0  0  0  0  0  0  0  0  0  0  0
   -1.2626    2.6104   -0.0238 O   0  0  0  0  0  0  0  0  0  0  0  0
   -2.8002    0.4282    0.8481 O   0  0  0  0  0  0  0  0  0  0  0  0
   -1.0011   -1.3168    1.7788 O   0  0  0  0  0  0  0  0  0  0  0  0
   -1.9554    0.2597   -1.0106 H   0  0  0  0  0  0  0  0  0  0  0  0
   -0.4068    1.4085    1.3806 H   0  0  0  0  0  0  0  0  0  0  0  0
    0.4649    1.5206   -1.5434 H   0  0  0  0  0  0  0  0  0  0  0  0
    1.3952    1.8788   -0.1027 H   0  0  0  0  0  0  0  0  0  0  0  0
    0.8372   -2.2743   -0.1225 H   0  0  0  0  0  0  0  0  0  0  0  0
   -1.6144   -1.9395   -0.0688 H   0  0  0  0  0  0  0  0  0  0  0  0
    3.9016   -1.5896   -1.3134 H   0  0  0  0  0  0  0  0  0  0  0  0
   -2.1725    2.5502    0.3312 H   0  0  0  0  0  0  0  0  0  0  0  0
   -2.5835    0.0090    1.7081 H   0  0  0  0  0  0  0  0  0  0  0  0
   -0.5632   -2.1656    1.9687 H   0  0  0  0  0  0  0  0  0  0  0  0
  1  6  1  0
  1 11  1  0
  1 13  1  6
  2  3  1  0
  2  1  1  0
  2 10  1  0
  3 16  1  0
  4  3  1  0
  5  6  1  0
  5  4  2  0
  6 18  1  6
  7  4  1  0
  7  9  2  0
  8  7  1  0
  8 19  1  0
 10 20  1  0
 11 21  1  0
 12  6  1  0
  2 14  1  1
 15  3  1  0
 17  5  1  0
 22 12  1  0
M  END
$$$$
