
 OpenBabel11301904063D

 75 75  0  0  1  0  0  0  0  0999 V2000
    0.7314   -2.2518   -6.1543 C   0  0  0  0  0  0  0  0  0  0  0  0
    2.0623   -1.9254   -5.4481 C   0  0  0  0  0  0  0  0  0  0  0  0
    2.3776   -0.4842   -5.4565 C   0  0  0  0  0  0  0  0  0  0  0  0
    2.4231    0.1762   -4.2643 O   0  0  0  0  0  0  0  0  0  0  0  0
    2.6343    0.0956   -6.5374 O   0  0  0  0  0  0  0  0  0  0  0  0
    2.9860    1.4633   -3.9638 C   0  0  1  0  0  0  0  0  0  0  0  0
    1.9786    2.4378   -3.3105 C   0  0  0  0  0  0  0  0  0  0  0  0
    4.2762    1.2127   -3.1000 C   0  0  1  0  0  0  0  0  0  0  0  0
    4.0649    0.3326   -1.7709 C   0  0  1  0  0  0  0  0  0  0  0  0
    5.3739   -0.4325   -1.3187 C   0  0  2  0  0  0  0  0  0  0  0  0
    5.5078   -0.7854    0.1894 C   0  0  0  0  0  0  0  0  0  0  0  0
    5.3369    0.3221    1.1043 O   0  0  0  0  0  0  0  0  0  0  0  0
    5.6532   -0.0521    2.4681 C   0  0  0  0  0  0  0  0  0  0  0  0
    5.0481    0.8748    3.4528 C   0  0  0  0  0  0  0  0  0  0  0  0
    5.7242    2.0455    3.8676 C   0  0  0  0  0  0  0  0  0  0  0  0
    5.1900    2.8559    4.8875 C   0  0  0  0  0  0  0  0  0  0  0  0
    3.9741    2.5064    5.5086 C   0  0  0  0  0  0  0  0  0  0  0  0
    3.2579    1.3842    5.0487 C   0  0  0  0  0  0  0  0  0  0  0  0
    3.7960    0.5696    4.0403 C   0  0  0  0  0  0  0  0  0  0  0  0
    3.4986    3.2497    6.5545 O   0  0  0  0  0  0  0  0  0  0  0  0
    3.8272    2.6641    7.8309 C   0  0  0  0  0  0  0  0  0  0  0  0
    5.4123    0.7813   -4.0899 C   0  0  0  0  0  0  0  0  0  0  0  0
    5.6730   -1.7112   -2.1856 C   0  0  0  0  0  0  0  0  0  0  0  0
    2.9281   -0.5890   -1.8590 O   0  0  0  0  0  0  0  0  0  0  0  0
    1.7117   -0.7977   -0.7482 Si  0  0  0  0  0  0  0  0  0  0  0  0
    1.9726   -0.0746    0.8364 C   0  0  0  0  0  0  0  0  0  0  0  0
    1.5081   -2.5429   -0.5605 C   0  0  0  0  0  0  0  0  0  0  0  0
    0.1756   -0.1684   -1.3530 C   0  0  0  0  0  0  0  0  0  0  0  0
   -0.0910   -1.6909   -5.7072 H   0  0  0  0  0  0  0  0  0  0  0  0
    0.7939   -2.0041   -7.2157 H   0  0  0  0  0  0  0  0  0  0  0  0
    0.5195   -3.3180   -6.0579 H   0  0  0  0  0  0  0  0  0  0  0  0
    2.0204   -2.2937   -4.4192 H   0  0  0  0  0  0  0  0  0  0  0  0
    2.8745   -2.4602   -5.9456 H   0  0  0  0  0  0  0  0  0  0  0  0
    3.2578    1.9528   -4.9062 H   0  0  0  0  0  0  0  0  0  0  0  0
    0.9911    2.3177   -3.7584 H   0  0  0  0  0  0  0  0  0  0  0  0
    1.9124    2.2804   -2.2376 H   0  0  0  0  0  0  0  0  0  0  0  0
    2.3049    3.4678   -3.4688 H   0  0  0  0  0  0  0  0  0  0  0  0
    4.6075    2.2005   -2.7587 H   0  0  0  0  0  0  0  0  0  0  0  0
    3.8578    1.0635   -0.9976 H   0  0  0  0  0  0  0  0  0  0  0  0
    6.2028    0.2656   -1.4550 H   0  0  0  0  0  0  0  0  0  0  0  0
    4.7853   -1.5587    0.4267 H   0  0  0  0  0  0  0  0  0  0  0  0
    6.5068   -1.2139    0.3348 H   0  0  0  0  0  0  0  0  0  0  0  0
    6.7406   -0.0620    2.5872 H   0  0  0  0  0  0  0  0  0  0  0  0
    5.3063   -1.0669    2.7021 H   0  0  0  0  0  0  0  0  0  0  0  0
    6.6204    2.3035    3.4455 H   0  0  0  0  0  0  0  0  0  0  0  0
    5.6957    3.6922    5.1890 H   0  0  0  0  0  0  0  0  0  0  0  0
    2.3529    1.1477    5.4627 H   0  0  0  0  0  0  0  0  0  0  0  0
    3.2743   -0.2607    3.7504 H   0  0  0  0  0  0  0  0  0  0  0  0
    4.9084    2.5563    7.9595 H   0  0  0  0  0  0  0  0  0  0  0  0
    3.4579    3.3253    8.6144 H   0  0  0  0  0  0  0  0  0  0  0  0
    3.3492    1.6886    7.9604 H   0  0  0  0  0  0  0  0  0  0  0  0
    6.3908    0.7877   -3.6120 H   0  0  0  0  0  0  0  0  0  0  0  0
    5.4885    1.4826   -4.9247 H   0  0  0  0  0  0  0  0  0  0  0  0
    5.2166   -0.2081   -4.5043 H   0  0  0  0  0  0  0  0  0  0  0  0
    5.8133   -2.6088   -1.5795 H   0  0  0  0  0  0  0  0  0  0  0  0
    4.8679   -1.9335   -2.8890 H   0  0  0  0  0  0  0  0  0  0  0  0
    6.5915   -1.5724   -2.7605 H   0  0  0  0  0  0  0  0  0  0  0  0
    1.8261    1.4638    0.9844 C   0  0  0  0  0  0  0  0  0  0  0  0
    2.9326   -0.3838    1.2202 H   0  0  0  0  0  0  0  0  0  0  0  0
    1.2272   -0.5203    1.4965 H   0  0  0  0  0  0  0  0  0  0  0  0
    2.7016    1.9948    0.6196 H   0  0  0  0  0  0  0  0  0  0  0  0
    0.9454    1.8416    0.4677 H   0  0  0  0  0  0  0  0  0  0  0  0
    1.7167    1.7127    2.0416 H   0  0  0  0  0  0  0  0  0  0  0  0
   -0.4718   -0.9048   -2.5431 C   0  0  0  0  0  0  0  0  0  0  0  0
   -0.5413   -0.1951   -0.5275 H   0  0  0  0  0  0  0  0  0  0  0  0
    0.2951    0.8701   -1.6324 H   0  0  0  0  0  0  0  0  0  0  0  0
    0.2008   -0.9154   -3.3943 H   0  0  0  0  0  0  0  0  0  0  0  0
   -0.7384   -1.9289   -2.2762 H   0  0  0  0  0  0  0  0  0  0  0  0
   -1.3857   -0.3829   -2.8364 H   0  0  0  0  0  0  0  0  0  0  0  0
    2.6954   -3.3278    0.0304 C   0  0  0  0  0  0  0  0  0  0  0  0
    0.6365   -2.7195    0.0748 H   0  0  0  0  0  0  0  0  0  0  0  0
    1.3012   -2.9722   -1.5429 H   0  0  0  0  0  0  0  0  0  0  0  0
    2.4165   -4.3759    0.1472 H   0  0  0  0  0  0  0  0  0  0  0  0
    2.9711   -2.9441    1.0129 H   0  0  0  0  0  0  0  0  0  0  0  0
    3.5519   -3.2847   -0.6417 H   0  0  0  0  0  0  0  0  0  0  0  0
  1 31  1  0  0  0  0
  1 29  1  0  0  0  0
  1  2  1  0  0  0  0
  2 32  1  0  0  0  0
  3  2  1  0  0  0  0
  3  4  1  0  0  0  0
  4  6  1  0  0  0  0
  5  3  2  0  0  0  0
  6 34  1  6  0  0  0
  6  7  1  0  0  0  0
  6  8  1  0  0  0  0
  7 36  1  0  0  0  0
  8 38  1  1  0  0  0
  8  9  1  0  0  0  0
  9 10  1  0  0  0  0
  9 39  1  1  0  0  0
 10 40  1  6  0  0  0
 10 11  1  0  0  0  0
 11 42  1  0  0  0  0
 11 41  1  0  0  0  0
 11 12  1  0  0  0  0
 12 13  1  0  0  0  0
 13 43  1  0  0  0  0
 13 44  1  0  0  0  0
 13 14  1  0  0  0  0
 14 15  2  0  0  0  0
 14 19  1  0  0  0  0
 15 16  1  0  0  0  0
 16 46  1  0  0  0  0
 16 17  2  0  0  0  0
 17 20  1  0  0  0  0
 18 47  1  0  0  0  0
 18 17  1  0  0  0  0
 19 18  2  0  0  0  0
 20 21  1  0  0  0  0
 21 49  1  0  0  0  0
 21 51  1  0  0  0  0
 21 50  1  0  0  0  0
 22 52  1  0  0  0  0
 22  8  1  0  0  0  0
 23 55  1  0  0  0  0
 23 10  1  0  0  0  0
 24  9  1  0  0  0  0
 24 25  1  0  0  0  0
 25 27  1  0  0  0  0
 25 26  1  0  0  0  0
 26 58  1  0  0  0  0
 26 59  1  0  0  0  0
 26 60  1  0  0  0  0
 27 70  1  0  0  0  0
 27 71  1  0  0  0  0
 28 25  1  0  0  0  0
 28 65  1  0  0  0  0
 30  1  1  0  0  0  0
 33  2  1  0  0  0  0
 35  7  1  0  0  0  0
 37  7  1  0  0  0  0
 45 15  1  0  0  0  0
 48 19  1  0  0  0  0
 53 22  1  0  0  0  0
 54 22  1  0  0  0  0
 56 23  1  0  0  0  0
 57 23  1  0  0  0  0
 58 63  1  0  0  0  0
 61 58  1  0  0  0  0
 62 58  1  0  0  0  0
 64 68  1  0  0  0  0
 64 28  1  0  0  0  0
 66 28  1  0  0  0  0
 67 64  1  0  0  0  0
 69 64  1  0  0  0  0
 70 73  1  0  0  0  0
 70 74  1  0  0  0  0
 72 27  1  0  0  0  0
 75 70  1  0  0  0  0
M  END
$$$$
