
 OpenBabel11301904063D

 75 75  0  0  1  0  0  0  0  0999 V2000
    9.8687   -3.5979   -2.6651 C   0  0  0  0  0  0  0  0  0  0  0  0
    9.5005   -2.3060   -3.4318 C   0  0  0  0  0  0  0  0  0  0  0  0
    8.0589   -2.2056   -3.7399 C   0  0  0  0  0  0  0  0  0  0  0  0
    7.3381   -1.1387   -3.2724 O   0  0  0  0  0  0  0  0  0  0  0  0
    7.5164   -3.0948   -4.4380 O   0  0  0  0  0  0  0  0  0  0  0  0
    5.9383   -0.8390   -3.4669 C   0  0  2  0  0  0  0  0  0  0  0  0
    5.7666   -0.3715   -4.9413 C   0  0  0  0  0  0  0  0  0  0  0  0
    5.4551    0.1864   -2.3634 C   0  0  1  0  0  0  0  0  0  0  0  0
    3.8856    0.3451   -2.1801 C   0  0  2  0  0  0  0  0  0  0  0  0
    3.0988    1.1393   -3.2980 C   0  0  2  0  0  0  0  0  0  0  0  0
    1.5898    1.3311   -2.9391 C   0  0  0  0  0  0  0  0  0  0  0  0
    0.8225    1.7391   -4.0938 O   0  0  0  0  0  0  0  0  0  0  0  0
   -0.5976    1.8900   -3.8709 C   0  0  0  0  0  0  0  0  0  0  0  0
   -1.2877    0.5793   -3.7400 C   0  0  0  0  0  0  0  0  0  0  0  0
   -1.3045   -0.3218   -4.8286 C   0  0  0  0  0  0  0  0  0  0  0  0
   -1.9278   -1.5772   -4.7109 C   0  0  0  0  0  0  0  0  0  0  0  0
   -2.5506   -1.9485   -3.5036 C   0  0  0  0  0  0  0  0  0  0  0  0
   -2.5313   -1.0606   -2.4101 C   0  0  0  0  0  0  0  0  0  0  0  0
   -1.9098    0.1956   -2.5295 C   0  0  0  0  0  0  0  0  0  0  0  0
   -3.1436   -3.1756   -3.3943 O   0  0  0  0  0  0  0  0  0  0  0  0
   -4.5564   -3.1408   -3.6622 C   0  0  0  0  0  0  0  0  0  0  0  0
    6.1212   -0.1292   -0.9854 C   0  0  0  0  0  0  0  0  0  0  0  0
    3.7100    2.5283   -3.6479 C   0  0  0  0  0  0  0  0  0  0  0  0
    3.2548   -0.9610   -2.1002 O   0  0  0  0  0  0  0  0  0  0  0  0
    2.7514   -1.7208   -0.7208 Si  0  0  0  0  0  0  0  0  0  0  0  0
    2.6245   -0.6966    0.7081 C   0  0  0  0  0  0  0  0  0  0  0  0
    3.8569   -3.0669   -0.4277 C   0  0  0  0  0  0  0  0  0  0  0  0
    1.1592   -2.3688   -1.1089 C   0  0  0  0  0  0  0  0  0  0  0  0
    9.3418   -3.6390   -1.7086 H   0  0  0  0  0  0  0  0  0  0  0  0
    9.6108   -4.4820   -3.2537 H   0  0  0  0  0  0  0  0  0  0  0  0
   10.9436   -3.6166   -2.4715 H   0  0  0  0  0  0  0  0  0  0  0  0
    9.8086   -1.4459   -2.8304 H   0  0  0  0  0  0  0  0  0  0  0  0
   10.0610   -2.2762   -4.3706 H   0  0  0  0  0  0  0  0  0  0  0  0
    5.3832   -1.7705   -3.3370 H   0  0  0  0  0  0  0  0  0  0  0  0
    6.3416   -1.0034   -5.6181 H   0  0  0  0  0  0  0  0  0  0  0  0
    6.1164    0.6523   -5.0708 H   0  0  0  0  0  0  0  0  0  0  0  0
    4.7325   -0.4440   -5.2624 H   0  0  0  0  0  0  0  0  0  0  0  0
    5.8701    1.1619   -2.6259 H   0  0  0  0  0  0  0  0  0  0  0  0
    3.7180    0.9243   -1.2698 H   0  0  0  0  0  0  0  0  0  0  0  0
    3.0967    0.5400   -4.2043 H   0  0  0  0  0  0  0  0  0  0  0  0
    1.1819    0.3939   -2.5588 H   0  0  0  0  0  0  0  0  0  0  0  0
    1.4950    2.0907   -2.1592 H   0  0  0  0  0  0  0  0  0  0  0  0
   -1.0121    2.4049   -4.7394 H   0  0  0  0  0  0  0  0  0  0  0  0
   -0.7808    2.5367   -3.0064 H   0  0  0  0  0  0  0  0  0  0  0  0
   -0.8610   -0.0700   -5.7144 H   0  0  0  0  0  0  0  0  0  0  0  0
   -1.9279   -2.2218   -5.5046 H   0  0  0  0  0  0  0  0  0  0  0  0
   -2.9679   -1.3296   -1.5258 H   0  0  0  0  0  0  0  0  0  0  0  0
   -1.9076    0.8247   -1.7224 H   0  0  0  0  0  0  0  0  0  0  0  0
   -4.7701   -2.7083   -4.6441 H   0  0  0  0  0  0  0  0  0  0  0  0
   -4.9242   -4.1672   -3.6572 H   0  0  0  0  0  0  0  0  0  0  0  0
   -5.0921   -2.5814   -2.8905 H   0  0  0  0  0  0  0  0  0  0  0  0
    5.7705    0.5485   -0.2058 H   0  0  0  0  0  0  0  0  0  0  0  0
    7.2057   -0.0233   -1.0384 H   0  0  0  0  0  0  0  0  0  0  0  0
    5.9067   -1.1467   -0.6845 H   0  0  0  0  0  0  0  0  0  0  0  0
    3.0700    3.0735   -4.3451 H   0  0  0  0  0  0  0  0  0  0  0  0
    3.8321    3.1291   -2.7443 H   0  0  0  0  0  0  0  0  0  0  0  0
    4.6813    2.4215   -4.1259 H   0  0  0  0  0  0  0  0  0  0  0  0
    1.5313    0.3979    0.7335 C   0  0  0  0  0  0  0  0  0  0  0  0
    3.5907   -0.2292    0.8977 H   0  0  0  0  0  0  0  0  0  0  0  0
    2.4088   -1.3517    1.5534 H   0  0  0  0  0  0  0  0  0  0  0  0
    1.6915    1.1322   -0.0492 H   0  0  0  0  0  0  0  0  0  0  0  0
    0.5353   -0.0320    0.6243 H   0  0  0  0  0  0  0  0  0  0  0  0
    1.5645    0.9174    1.6943 H   0  0  0  0  0  0  0  0  0  0  0  0
    1.0958   -3.1297   -2.4542 C   0  0  0  0  0  0  0  0  0  0  0  0
    0.8443   -3.0299   -0.2988 H   0  0  0  0  0  0  0  0  0  0  0  0
    0.4466   -1.5467   -1.1670 H   0  0  0  0  0  0  0  0  0  0  0  0
    1.3552   -2.4691   -3.2858 H   0  0  0  0  0  0  0  0  0  0  0  0
    1.7674   -3.9882   -2.4548 H   0  0  0  0  0  0  0  0  0  0  0  0
    0.0821   -3.4987   -2.6131 H   0  0  0  0  0  0  0  0  0  0  0  0
    4.5049   -3.1775    0.9755 C   0  0  0  0  0  0  0  0  0  0  0  0
    3.3227   -4.0007   -0.6039 H   0  0  0  0  0  0  0  0  0  0  0  0
    4.6517   -3.0186   -1.1717 H   0  0  0  0  0  0  0  0  0  0  0  0
    5.1964   -4.0210    0.9868 H   0  0  0  0  0  0  0  0  0  0  0  0
    3.7498   -3.3516    1.7450 H   0  0  0  0  0  0  0  0  0  0  0  0
    5.0710   -2.2800    1.2290 H   0  0  0  0  0  0  0  0  0  0  0  0
  1 31  1  0  0  0  0
  1 29  1  0  0  0  0
  2 32  1  0  0  0  0
  2  1  1  0  0  0  0
  3  2  1  0  0  0  0
  3  4  1  0  0  0  0
  5  3  2  0  0  0  0
  6 34  1  1  0  0  0
  6  4  1  0  0  0  0
  6  8  1  0  0  0  0
  7  6  1  0  0  0  0
  8 38  1  6  0  0  0
  8  9  1  0  0  0  0
  8 22  1  0  0  0  0
  9 24  1  0  0  0  0
  9 39  1  1  0  0  0
 10 40  1  6  0  0  0
 10 11  1  0  0  0  0
 10  9  1  0  0  0  0
 11 41  1  0  0  0  0
 11 42  1  0  0  0  0
 12 13  1  0  0  0  0
 12 11  1  0  0  0  0
 13 14  1  0  0  0  0
 13 44  1  0  0  0  0
 14 19  2  0  0  0  0
 15 16  2  0  0  0  0
 15 14  1  0  0  0  0
 16 17  1  0  0  0  0
 17 20  1  0  0  0  0
 17 18  2  0  0  0  0
 18 47  1  0  0  0  0
 19 18  1  0  0  0  0
 19 48  1  0  0  0  0
 21 50  1  0  0  0  0
 21 20  1  0  0  0  0
 21 51  1  0  0  0  0
 22 54  1  0  0  0  0
 22 52  1  0  0  0  0
 23 10  1  0  0  0  0
 23 56  1  0  0  0  0
 24 25  1  0  0  0  0
 25 27  1  0  0  0  0
 25 26  1  0  0  0  0
 26 58  1  0  0  0  0
 26 59  1  0  0  0  0
 26 60  1  0  0  0  0
 27 70  1  0  0  0  0
 28 25  1  0  0  0  0
 28 65  1  0  0  0  0
 30  1  1  0  0  0  0
 33  2  1  0  0  0  0
 35  7  1  0  0  0  0
 36  7  1  0  0  0  0
 37  7  1  0  0  0  0
 43 13  1  0  0  0  0
 45 15  1  0  0  0  0
 46 16  1  0  0  0  0
 49 21  1  0  0  0  0
 53 22  1  0  0  0  0
 55 23  1  0  0  0  0
 57 23  1  0  0  0  0
 58 63  1  0  0  0  0
 61 58  1  0  0  0  0
 62 58  1  0  0  0  0
 64 28  1  0  0  0  0
 66 28  1  0  0  0  0
 67 64  1  0  0  0  0
 68 64  1  0  0  0  0
 69 64  1  0  0  0  0
 70 73  1  0  0  0  0
 70 75  1  0  0  0  0
 70 74  1  0  0  0  0
 71 27  1  0  0  0  0
 72 27  1  0  0  0  0
M  END
$$$$
