
 OpenBabel11301904063D

 75 75  0  0  1  0  0  0  0  0999 V2000
    6.9679   -6.0745   -2.0463 C   0  0  0  0  0  0  0  0  0  0  0  0
    5.9773   -5.3952   -1.0700 C   0  0  0  0  0  0  0  0  0  0  0  0
    6.4824   -4.0967   -0.5774 C   0  0  0  0  0  0  0  0  0  0  0  0
    5.8091   -2.9450   -0.8860 O   0  0  0  0  0  0  0  0  0  0  0  0
    7.5208   -4.0726    0.1254 O   0  0  0  0  0  0  0  0  0  0  0  0
    6.2079   -1.5805   -0.6329 C   0  0  2  0  0  0  0  0  0  0  0  0
    5.9169   -1.1846    0.8370 C   0  0  0  0  0  0  0  0  0  0  0  0
    5.6400   -0.6044   -1.7406 C   0  0  2  0  0  0  0  0  0  0  0  0
    4.1854   -0.0095   -1.5188 C   0  0  2  0  0  0  0  0  0  0  0  0
    3.7966    1.2137   -2.4826 C   0  0  2  0  0  0  0  0  0  0  0  0
    2.8311    2.2748   -1.8390 C   0  0  0  0  0  0  0  0  0  0  0  0
    1.4854    1.7891   -1.7838 O   0  0  0  0  0  0  0  0  0  0  0  0
    0.4834    2.6732   -1.2388 C   0  0  0  0  0  0  0  0  0  0  0  0
   -0.8148    1.9592   -1.3602 C   0  0  0  0  0  0  0  0  0  0  0  0
   -1.3646    1.7244   -2.6417 C   0  0  0  0  0  0  0  0  0  0  0  0
   -2.5375    0.9635   -2.7890 C   0  0  0  0  0  0  0  0  0  0  0  0
   -3.1901    0.4247   -1.6626 C   0  0  0  0  0  0  0  0  0  0  0  0
   -2.6704    0.6833   -0.3776 C   0  0  0  0  0  0  0  0  0  0  0  0
   -1.4995    1.4526   -0.2299 C   0  0  0  0  0  0  0  0  0  0  0  0
   -4.2663   -0.4047   -1.8398 O   0  0  0  0  0  0  0  0  0  0  0  0
   -5.5492    0.2181   -1.6517 C   0  0  0  0  0  0  0  0  0  0  0  0
    5.8099   -1.2898   -3.1432 C   0  0  0  0  0  0  0  0  0  0  0  0
    4.9917    2.0622   -3.0524 C   0  0  0  0  0  0  0  0  0  0  0  0
    3.4114   -1.2388   -1.5976 O   0  0  0  0  0  0  0  0  0  0  0  0
    1.9126   -1.6613   -1.0581 Si  0  0  0  0  0  0  0  0  0  0  0  0
    1.2919   -0.9719    0.4452 C   0  0  0  0  0  0  0  0  0  0  0  0
    1.9970   -3.4200   -0.8553 C   0  0  0  0  0  0  0  0  0  0  0  0
    0.7648   -1.3630   -2.3605 C   0  0  0  0  0  0  0  0  0  0  0  0
    7.1090   -5.4551   -2.9357 H   0  0  0  0  0  0  0  0  0  0  0  0
    7.9391   -6.2368   -1.5723 H   0  0  0  0  0  0  0  0  0  0  0  0
    6.5758   -7.0442   -2.3573 H   0  0  0  0  0  0  0  0  0  0  0  0
    5.0269   -5.2527   -1.5916 H   0  0  0  0  0  0  0  0  0  0  0  0
    5.7960   -6.0570   -0.2202 H   0  0  0  0  0  0  0  0  0  0  0  0
    7.2997   -1.5511   -0.7351 H   0  0  0  0  0  0  0  0  0  0  0  0
    6.5358   -1.7747    1.5150 H   0  0  0  0  0  0  0  0  0  0  0  0
    4.8761   -1.3794    1.0833 H   0  0  0  0  0  0  0  0  0  0  0  0
    6.1332   -0.1270    1.0063 H   0  0  0  0  0  0  0  0  0  0  0  0
    6.3313    0.2409   -1.7154 H   0  0  0  0  0  0  0  0  0  0  0  0
    4.1665    0.3690   -0.5023 H   0  0  0  0  0  0  0  0  0  0  0  0
    3.2906    0.7886   -3.3533 H   0  0  0  0  0  0  0  0  0  0  0  0
    3.2000    2.5383   -0.8460 H   0  0  0  0  0  0  0  0  0  0  0  0
    2.8032    3.2007   -2.4231 H   0  0  0  0  0  0  0  0  0  0  0  0
    0.4345    3.6162   -1.7926 H   0  0  0  0  0  0  0  0  0  0  0  0
    0.7231    2.9068   -0.1973 H   0  0  0  0  0  0  0  0  0  0  0  0
   -0.9031    2.0925   -3.4789 H   0  0  0  0  0  0  0  0  0  0  0  0
   -2.9052    0.7894   -3.7242 H   0  0  0  0  0  0  0  0  0  0  0  0
   -3.1380    0.2996    0.4477 H   0  0  0  0  0  0  0  0  0  0  0  0
   -1.1320    1.6175    0.7076 H   0  0  0  0  0  0  0  0  0  0  0  0
   -5.6852    1.0840   -2.3060 H   0  0  0  0  0  0  0  0  0  0  0  0
   -6.3189   -0.5139   -1.9043 H   0  0  0  0  0  0  0  0  0  0  0  0
   -5.6925    0.5154   -0.6097 H   0  0  0  0  0  0  0  0  0  0  0  0
    5.4293   -0.6821   -3.9594 H   0  0  0  0  0  0  0  0  0  0  0  0
    5.2725   -2.2383   -3.1942 H   0  0  0  0  0  0  0  0  0  0  0  0
    6.8664   -1.4877   -3.3358 H   0  0  0  0  0  0  0  0  0  0  0  0
    4.6357    2.8197   -3.7544 H   0  0  0  0  0  0  0  0  0  0  0  0
    5.5303    2.5681   -2.2468 H   0  0  0  0  0  0  0  0  0  0  0  0
    5.7005    1.4690   -3.6196 H   0  0  0  0  0  0  0  0  0  0  0  0
    2.0146    0.1672    1.1835 C   0  0  0  0  0  0  0  0  0  0  0  0
    1.1892   -1.7730    1.1738 H   0  0  0  0  0  0  0  0  0  0  0  0
    0.2769   -0.6304    0.2533 H   0  0  0  0  0  0  0  0  0  0  0  0
    2.9971   -0.1411    1.5274 H   0  0  0  0  0  0  0  0  0  0  0  0
    2.1061    1.0426    0.5579 H   0  0  0  0  0  0  0  0  0  0  0  0
    1.4296    0.4532    2.0591 H   0  0  0  0  0  0  0  0  0  0  0  0
    1.1065   -2.0396   -3.7065 C   0  0  0  0  0  0  0  0  0  0  0  0
   -0.2204   -1.7047   -2.0350 H   0  0  0  0  0  0  0  0  0  0  0  0
    0.6949   -0.3028   -2.5473 H   0  0  0  0  0  0  0  0  0  0  0  0
    2.1017   -1.7516   -4.0494 H   0  0  0  0  0  0  0  0  0  0  0  0
    1.0548   -3.1263   -3.6234 H   0  0  0  0  0  0  0  0  0  0  0  0
    0.3843   -1.7228   -4.4609 H   0  0  0  0  0  0  0  0  0  0  0  0
    2.7748   -3.9564    0.3709 C   0  0  0  0  0  0  0  0  0  0  0  0
    0.9780   -3.8098   -0.8039 H   0  0  0  0  0  0  0  0  0  0  0  0
    2.4659   -3.8338   -1.7492 H   0  0  0  0  0  0  0  0  0  0  0  0
    2.9770   -5.0219    0.2391 H   0  0  0  0  0  0  0  0  0  0  0  0
    2.1957   -3.8420    1.2873 H   0  0  0  0  0  0  0  0  0  0  0  0
    3.7244   -3.4454    0.4925 H   0  0  0  0  0  0  0  0  0  0  0  0
  1 30  1  0  0  0  0
  1  2  1  0  0  0  0
  2  3  1  0  0  0  0
  2 33  1  0  0  0  0
  3  5  2  0  0  0  0
  4  6  1  0  0  0  0
  4  3  1  0  0  0  0
  6 34  1  6  0  0  0
  6  7  1  0  0  0  0
  7 37  1  0  0  0  0
  7 36  1  0  0  0  0
  7 35  1  0  0  0  0
  8 38  1  6  0  0  0
  8  9  1  0  0  0  0
  8  6  1  0  0  0  0
  9 39  1  1  0  0  0
 10 40  1  6  0  0  0
 10 11  1  0  0  0  0
 10  9  1  0  0  0  0
 11 12  1  0  0  0  0
 11 41  1  0  0  0  0
 12 13  1  0  0  0  0
 13 44  1  0  0  0  0
 14 13  1  0  0  0  0
 14 19  2  0  0  0  0
 15 14  1  0  0  0  0
 16 15  2  0  0  0  0
 16 17  1  0  0  0  0
 17 18  2  0  0  0  0
 18 19  1  0  0  0  0
 18 47  1  0  0  0  0
 19 48  1  0  0  0  0
 20 17  1  0  0  0  0
 20 21  1  0  0  0  0
 21 51  1  0  0  0  0
 22  8  1  0  0  0  0
 23 10  1  0  0  0  0
 23 56  1  0  0  0  0
 24  9  1  0  0  0  0
 24 25  1  0  0  0  0
 25 27  1  0  0  0  0
 25 26  1  0  0  0  0
 26 59  1  0  0  0  0
 26 58  1  0  0  0  0
 27 71  1  0  0  0  0
 27 70  1  0  0  0  0
 28 65  1  0  0  0  0
 28 25  1  0  0  0  0
 29  1  1  0  0  0  0
 31  1  1  0  0  0  0
 32  2  1  0  0  0  0
 42 11  1  0  0  0  0
 43 13  1  0  0  0  0
 45 15  1  0  0  0  0
 46 16  1  0  0  0  0
 49 21  1  0  0  0  0
 50 21  1  0  0  0  0
 52 22  1  0  0  0  0
 53 22  1  0  0  0  0
 54 22  1  0  0  0  0
 55 23  1  0  0  0  0
 57 23  1  0  0  0  0
 58 61  1  0  0  0  0
 58 63  1  0  0  0  0
 60 26  1  0  0  0  0
 62 58  1  0  0  0  0
 64 68  1  0  0  0  0
 64 28  1  0  0  0  0
 66 28  1  0  0  0  0
 67 64  1  0  0  0  0
 69 64  1  0  0  0  0
 70 75  1  0  0  0  0
 70 74  1  0  0  0  0
 72 27  1  0  0  0  0
 73 70  1  0  0  0  0
M  END
$$$$
