
 OpenBabel11301904033D

 54 55  0  0  1  0  0  0  0  0999 V2000
   -2.2546   -0.0403    2.6225 C   0  0  1  0  0  0  0  0  0  0  0  0
   -2.4314    1.0276    3.6897 C   0  0  2  0  0  0  0  0  0  0  0  0
   -3.4489    1.9660    3.0141 C   0  0  2  0  0  0  0  0  0  0  0  0
   -2.7826    2.1015    1.6057 C   0  0  1  0  0  0  0  0  0  0  0  0
   -1.9976    0.7626    1.3232 C   0  0  2  0  0  0  0  0  0  0  0  0
   -3.1796   -0.6256    2.4901 H   0  0  0  0  0  0  0  0  0  0  0  0
   -1.5140    1.5997    3.8905 H   0  0  0  0  0  0  0  0  0  0  0  0
   -4.4178    1.4669    2.9020 H   0  0  0  0  0  0  0  0  0  0  0  0
   -2.0945    2.9554    1.6111 H   0  0  0  0  0  0  0  0  0  0  0  0
   -1.2875   -0.8774    3.2528 O   0  0  0  0  0  0  0  0  0  0  0  0
   -2.7040    0.1904    4.8073 O   0  0  0  0  0  0  0  0  0  0  0  0
   -1.7488   -0.8935    4.6320 C   0  0  0  0  0  0  0  0  0  0  0  0
   -0.5426   -0.6887    5.5872 C   0  0  0  0  0  0  0  0  0  0  0  0
   -2.4599   -2.2398    4.9300 C   0  0  0  0  0  0  0  0  0  0  0  0
   -0.5373    0.9119    1.0750 C   0  0  0  0  0  0  0  0  0  0  0  0
    0.1590    1.6378    1.8260 O   0  0  0  0  0  0  0  0  0  0  0  0
    0.0618    0.2130    0.0624 O   0  0  0  0  0  0  0  0  0  0  0  0
    1.4648    0.1643   -0.2198 C   0  0  0  0  0  0  0  0  0  0  0  0
   -2.5858    0.0630    0.2171 O   0  0  0  0  0  0  0  0  0  0  0  0
   -3.7788    2.4054    0.6277 O   0  0  0  0  0  0  0  0  0  0  0  0
   -3.5601    3.2739    3.6170 O   0  0  0  0  0  0  0  0  0  0  0  0
   -4.6166    3.5437    4.8490 Si  0  0  0  0  0  0  0  0  0  0  0  0
   -6.2369    3.1278    4.3304 C   0  0  0  0  0  0  0  0  0  0  0  0
   -4.1861    2.5695    6.2374 C   0  0  0  0  0  0  0  0  0  0  0  0
   -4.4873    5.2806    5.2219 C   0  0  0  0  0  0  0  0  0  0  0  0
   -2.9964    5.6442    5.5350 C   0  0  0  0  0  0  0  0  0  0  0  0
   -4.9497    6.1358    3.9923 C   0  0  0  0  0  0  0  0  0  0  0  0
   -5.3627    5.6872    6.4534 C   0  0  0  0  0  0  0  0  0  0  0  0
    1.8543    1.1604   -0.4353 H   0  0  0  0  0  0  0  0  0  0  0  0
    1.6331   -0.4761   -1.0853 H   0  0  0  0  0  0  0  0  0  0  0  0
    1.9973   -0.2558    0.6357 H   0  0  0  0  0  0  0  0  0  0  0  0
   -0.8975   -0.5475    6.6105 H   0  0  0  0  0  0  0  0  0  0  0  0
    0.1243   -1.5534    5.5622 H   0  0  0  0  0  0  0  0  0  0  0  0
    0.0303    0.1928    5.2961 H   0  0  0  0  0  0  0  0  0  0  0  0
   -2.8112   -2.2627    5.9638 H   0  0  0  0  0  0  0  0  0  0  0  0
   -1.7754   -3.0764    4.7691 H   0  0  0  0  0  0  0  0  0  0  0  0
   -3.3203   -2.3693    4.2709 H   0  0  0  0  0  0  0  0  0  0  0  0
   -2.3416    5.4128    4.6911 H   0  0  0  0  0  0  0  0  0  0  0  0
   -2.8946    6.7123    5.7452 H   0  0  0  0  0  0  0  0  0  0  0  0
   -2.6309    5.1032    6.4113 H   0  0  0  0  0  0  0  0  0  0  0  0
   -6.4186    5.4705    6.2810 H   0  0  0  0  0  0  0  0  0  0  0  0
   -5.0496    5.1707    7.3623 H   0  0  0  0  0  0  0  0  0  0  0  0
   -5.2753    6.7584    6.6504 H   0  0  0  0  0  0  0  0  0  0  0  0
   -6.0124    5.9918    3.7859 H   0  0  0  0  0  0  0  0  0  0  0  0
   -4.8004    7.2011    4.1864 H   0  0  0  0  0  0  0  0  0  0  0  0
   -4.3858    5.8803    3.0922 H   0  0  0  0  0  0  0  0  0  0  0  0
   -4.7292    2.9024    7.1181 H   0  0  0  0  0  0  0  0  0  0  0  0
   -4.4527    1.5304    6.0568 H   0  0  0  0  0  0  0  0  0  0  0  0
   -3.1168    2.6376    6.4303 H   0  0  0  0  0  0  0  0  0  0  0  0
   -6.9605    3.4145    5.0930 H   0  0  0  0  0  0  0  0  0  0  0  0
   -6.3159    2.0524    4.1698 H   0  0  0  0  0  0  0  0  0  0  0  0
   -6.4744    3.6390    3.3974 H   0  0  0  0  0  0  0  0  0  0  0  0
   -3.2910    2.4883   -0.2190 H   0  0  0  0  0  0  0  0  0  0  0  0
   -2.1469   -0.8148    0.1983 H   0  0  0  0  0  0  0  0  0  0  0  0
  1  5  1  6  0  0  0
  1 10  1  0  0  0  0
  2  1  1  6  0  0  0
  2  7  1  0  0  0  0
  2 11  1  0  0  0  0
  3  4  1  6  0  0  0
  3 21  1  0  0  0  0
  3  2  1  0  0  0  0
  4  5  1  6  0  0  0
  4  9  1  0  0  0  0
  5 19  1  6  0  0  0
  6  1  1  0  0  0  0
  8  3  1  0  0  0  0
 10 12  1  0  0  0  0
 12 11  1  0  0  0  0
 12 14  1  0  0  0  0
 12 13  1  0  0  0  0
 13 32  1  0  0  0  0
 14 35  1  0  0  0  0
 15  5  1  0  0  0  0
 15 16  2  0  0  0  0
 17 15  1  0  0  0  0
 18 17  1  0  0  0  0
 18 31  1  0  0  0  0
 20  4  1  0  0  0  0
 21 22  1  0  0  0  0
 22 25  1  0  0  0  0
 22 24  1  0  0  0  0
 23 22  1  0  0  0  0
 23 50  1  0  0  0  0
 24 49  1  0  0  0  0
 24 47  1  0  0  0  0
 25 26  1  0  0  0  0
 25 28  1  0  0  0  0
 26 39  1  0  0  0  0
 26 40  1  0  0  0  0
 27 45  1  0  0  0  0
 27 25  1  0  0  0  0
 28 43  1  0  0  0  0
 28 42  1  0  0  0  0
 29 18  1  0  0  0  0
 30 18  1  0  0  0  0
 33 13  1  0  0  0  0
 34 13  1  0  0  0  0
 36 14  1  0  0  0  0
 37 14  1  0  0  0  0
 38 26  1  0  0  0  0
 41 28  1  0  0  0  0
 44 27  1  0  0  0  0
 46 27  1  0  0  0  0
 48 24  1  0  0  0  0
 51 23  1  0  0  0  0
 52 23  1  0  0  0  0
 53 20  1  0  0  0  0
 54 19  1  0  0  0  0
M  END
$$$$
