
 OpenBabel11301904033D

 54 55  0  0  1  0  0  0  0  0999 V2000
   -2.1768    2.3519    1.3158 C   0  0  1  0  0  0  0  0  0  0  0  0
   -2.5902    2.3449    2.7883 C   0  0  1  0  0  0  0  0  0  0  0  0
   -3.1007    0.9173    3.1263 C   0  0  2  0  0  0  0  0  0  0  0  0
   -2.8319    0.0557    1.8585 C   0  0  2  0  0  0  0  0  0  0  0  0
   -1.9059    0.8819    0.9161 C   0  0  1  0  0  0  0  0  0  0  0  0
   -1.3118    3.0027    1.1344 H   0  0  0  0  0  0  0  0  0  0  0  0
   -1.7348    2.6038    3.4196 H   0  0  0  0  0  0  0  0  0  0  0  0
   -2.4862    0.5401    3.9494 H   0  0  0  0  0  0  0  0  0  0  0  0
   -2.3602   -0.8900    2.1454 H   0  0  0  0  0  0  0  0  0  0  0  0
   -3.3094    2.9071    0.6520 O   0  0  0  0  0  0  0  0  0  0  0  0
   -3.5805    3.3655    2.9229 O   0  0  0  0  0  0  0  0  0  0  0  0
   -3.9049    3.8081    1.5967 C   0  0  0  0  0  0  0  0  0  0  0  0
   -3.3733    5.2537    1.3925 C   0  0  0  0  0  0  0  0  0  0  0  0
   -5.4390    3.7371    1.4037 C   0  0  0  0  0  0  0  0  0  0  0  0
   -0.4613    0.5451    1.0786 C   0  0  0  0  0  0  0  0  0  0  0  0
    0.0899    0.6434    2.2021 O   0  0  0  0  0  0  0  0  0  0  0  0
    0.2674    0.1595   -0.0121 O   0  0  0  0  0  0  0  0  0  0  0  0
    1.6650   -0.1353   -0.0551 C   0  0  0  0  0  0  0  0  0  0  0  0
   -2.2699    0.6807   -0.4575 O   0  0  0  0  0  0  0  0  0  0  0  0
   -4.0525   -0.2896    1.1979 O   0  0  0  0  0  0  0  0  0  0  0  0
   -4.5019    0.9766    3.4791 O   0  0  0  0  0  0  0  0  0  0  0  0
   -5.1173   -0.0054    4.6453 Si  0  0  0  0  0  0  0  0  0  0  0  0
   -4.7663   -1.6790    4.2750 C   0  0  0  0  0  0  0  0  0  0  0  0
   -4.3766    0.4002    6.1804 C   0  0  0  0  0  0  0  0  0  0  0  0
   -6.8690    0.3190    4.6579 C   0  0  0  0  0  0  0  0  0  0  0  0
   -7.1203    1.8305    4.9861 C   0  0  0  0  0  0  0  0  0  0  0  0
   -7.4863    0.0196    3.2497 C   0  0  0  0  0  0  0  0  0  0  0  0
   -7.6178   -0.5546    5.7184 C   0  0  0  0  0  0  0  0  0  0  0  0
    2.2447    0.7381    0.2481 H   0  0  0  0  0  0  0  0  0  0  0  0
    1.9348   -0.3957   -1.0787 H   0  0  0  0  0  0  0  0  0  0  0  0
    1.9008   -0.9757    0.6002 H   0  0  0  0  0  0  0  0  0  0  0  0
   -3.5599    5.5820    0.3685 H   0  0  0  0  0  0  0  0  0  0  0  0
   -3.8662    5.9443    2.0804 H   0  0  0  0  0  0  0  0  0  0  0  0
   -2.2980    5.2953    1.5757 H   0  0  0  0  0  0  0  0  0  0  0  0
   -5.9506    4.3137    2.1773 H   0  0  0  0  0  0  0  0  0  0  0  0
   -5.7749    2.7002    1.4642 H   0  0  0  0  0  0  0  0  0  0  0  0
   -5.7181    4.1318    0.4240 H   0  0  0  0  0  0  0  0  0  0  0  0
   -6.6073    2.4840    4.2763 H   0  0  0  0  0  0  0  0  0  0  0  0
   -8.1858    2.0683    4.9397 H   0  0  0  0  0  0  0  0  0  0  0  0
   -6.7760    2.0825    5.9907 H   0  0  0  0  0  0  0  0  0  0  0  0
   -7.4808   -1.6208    5.5242 H   0  0  0  0  0  0  0  0  0  0  0  0
   -7.2689   -0.3402    6.7300 H   0  0  0  0  0  0  0  0  0  0  0  0
   -8.6921   -0.3524    5.6934 H   0  0  0  0  0  0  0  0  0  0  0  0
   -7.4126   -1.0404    2.9975 H   0  0  0  0  0  0  0  0  0  0  0  0
   -8.5474    0.2832    3.2274 H   0  0  0  0  0  0  0  0  0  0  0  0
   -6.9912    0.5927    2.4621 H   0  0  0  0  0  0  0  0  0  0  0  0
   -4.8924   -0.1120    6.9914 H   0  0  0  0  0  0  0  0  0  0  0  0
   -3.3339    0.0837    6.1875 H   0  0  0  0  0  0  0  0  0  0  0  0
   -4.4153    1.4757    6.3512 H   0  0  0  0  0  0  0  0  0  0  0  0
   -5.2127   -2.3247    5.0302 H   0  0  0  0  0  0  0  0  0  0  0  0
   -3.6881   -1.8452    4.2771 H   0  0  0  0  0  0  0  0  0  0  0  0
   -5.1611   -1.9465    3.2968 H   0  0  0  0  0  0  0  0  0  0  0  0
   -3.7751   -0.8707    0.4576 H   0  0  0  0  0  0  0  0  0  0  0  0
   -1.7022    1.2871   -0.9776 H   0  0  0  0  0  0  0  0  0  0  0  0
  1  5  1  6  0  0  0
  2  1  1  6  0  0  0
  2 11  1  0  0  0  0
  2  3  1  0  0  0  0
  2  7  1  0  0  0  0
  3  4  1  6  0  0  0
  3 21  1  0  0  0  0
  3  8  1  0  0  0  0
  4  5  1  6  0  0  0
  4  9  1  0  0  0  0
  5 19  1  6  0  0  0
  5 15  1  0  0  0  0
  6  1  1  0  0  0  0
 10  1  1  0  0  0  0
 10 12  1  0  0  0  0
 12 11  1  0  0  0  0
 13 34  1  0  0  0  0
 13 12  1  0  0  0  0
 13 33  1  0  0  0  0
 14 36  1  0  0  0  0
 14 12  1  0  0  0  0
 14 35  1  0  0  0  0
 15 16  2  0  0  0  0
 17 15  1  0  0  0  0
 18 17  1  0  0  0  0
 18 29  1  0  0  0  0
 18 31  1  0  0  0  0
 20  4  1  0  0  0  0
 21 22  1  0  0  0  0
 22 25  1  0  0  0  0
 22 24  1  0  0  0  0
 23 51  1  0  0  0  0
 23 22  1  0  0  0  0
 23 50  1  0  0  0  0
 24 48  1  0  0  0  0
 24 49  1  0  0  0  0
 24 47  1  0  0  0  0
 25 26  1  0  0  0  0
 25 28  1  0  0  0  0
 26 40  1  0  0  0  0
 27 25  1  0  0  0  0
 28 42  1  0  0  0  0
 30 18  1  0  0  0  0
 32 13  1  0  0  0  0
 37 14  1  0  0  0  0
 38 26  1  0  0  0  0
 39 26  1  0  0  0  0
 41 28  1  0  0  0  0
 43 28  1  0  0  0  0
 44 27  1  0  0  0  0
 45 27  1  0  0  0  0
 46 27  1  0  0  0  0
 52 23  1  0  0  0  0
 53 20  1  0  0  0  0
 54 19  1  0  0  0  0
M  END
$$$$
