
 OpenBabel11301904033D

 54 55  0  0  1  0  0  0  0  0999 V2000
   -2.1556    2.0555    1.0346 C   0  0  2  0  0  0  0  0  0  0  0  0
   -2.4352    2.2102    2.5277 C   0  0  2  0  0  0  0  0  0  0  0  0
   -2.7251    0.8037    3.1093 C   0  0  2  0  0  0  0  0  0  0  0  0
   -2.3255   -0.2039    1.9951 C   0  0  1  0  0  0  0  0  0  0  0  0
   -1.6556    0.5957    0.8357 C   0  0  1  0  0  0  0  0  0  0  0  0
   -3.0811    2.2213    0.4740 H   0  0  0  0  0  0  0  0  0  0  0  0
   -3.2837    2.8828    2.7054 H   0  0  0  0  0  0  0  0  0  0  0  0
   -2.1229    0.6726    4.0131 H   0  0  0  0  0  0  0  0  0  0  0  0
   -3.2300   -0.6847    1.6146 H   0  0  0  0  0  0  0  0  0  0  0  0
   -1.2165    3.0863    0.6946 O   0  0  0  0  0  0  0  0  0  0  0  0
   -1.2430    2.8466    2.9946 O   0  0  0  0  0  0  0  0  0  0  0  0
   -0.8631    3.7390    1.9270 C   0  0  0  0  0  0  0  0  0  0  0  0
    0.6719    3.9610    1.9602 C   0  0  0  0  0  0  0  0  0  0  0  0
   -1.5831    5.1190    2.0379 C   0  0  0  0  0  0  0  0  0  0  0  0
   -0.1694    0.4623    0.8333 C   0  0  0  0  0  0  0  0  0  0  0  0
    0.4800    0.6374    1.8909 O   0  0  0  0  0  0  0  0  0  0  0  0
    0.4811    0.1172   -0.3168 O   0  0  0  0  0  0  0  0  0  0  0  0
    1.8849   -0.1001   -0.4613 C   0  0  0  0  0  0  0  0  0  0  0  0
   -2.1600    0.1116   -0.4155 O   0  0  0  0  0  0  0  0  0  0  0  0
   -1.4948   -1.2484    2.5113 O   0  0  0  0  0  0  0  0  0  0  0  0
   -4.1452    0.7802    3.3906 O   0  0  0  0  0  0  0  0  0  0  0  0
   -4.8376   -0.2967    4.4208 Si  0  0  0  0  0  0  0  0  0  0  0  0
   -4.7182   -1.9259    3.7954 C   0  0  0  0  0  0  0  0  0  0  0  0
   -4.0303   -0.2083    5.9697 C   0  0  0  0  0  0  0  0  0  0  0  0
   -6.5425    0.2085    4.5368 C   0  0  0  0  0  0  0  0  0  0  0  0
   -6.6473    1.5651    5.3093 C   0  0  0  0  0  0  0  0  0  0  0  0
   -7.1249    0.4356    3.1000 C   0  0  0  0  0  0  0  0  0  0  0  0
   -7.4236   -0.8581    5.2681 C   0  0  0  0  0  0  0  0  0  0  0  0
    2.4357    0.8050   -0.2028 H   0  0  0  0  0  0  0  0  0  0  0  0
    2.0946   -0.3613   -1.4981 H   0  0  0  0  0  0  0  0  0  0  0  0
    2.2043   -0.9201    0.1834 H   0  0  0  0  0  0  0  0  0  0  0  0
    0.9709    4.6680    1.1834 H   0  0  0  0  0  0  0  0  0  0  0  0
    0.9761    4.3562    2.9316 H   0  0  0  0  0  0  0  0  0  0  0  0
    1.2087    3.0293    1.7887 H   0  0  0  0  0  0  0  0  0  0  0  0
   -1.3367    5.5984    2.9866 H   0  0  0  0  0  0  0  0  0  0  0  0
   -2.6672    5.0169    1.9811 H   0  0  0  0  0  0  0  0  0  0  0  0
   -1.2717    5.7774    1.2254 H   0  0  0  0  0  0  0  0  0  0  0  0
   -6.0451    2.3420    4.8319 H   0  0  0  0  0  0  0  0  0  0  0  0
   -7.6808    1.9161    5.3314 H   0  0  0  0  0  0  0  0  0  0  0  0
   -6.3178    1.4630    6.3445 H   0  0  0  0  0  0  0  0  0  0  0  0
   -7.4849   -1.7857    4.6958 H   0  0  0  0  0  0  0  0  0  0  0  0
   -7.0311   -1.0900    6.2597 H   0  0  0  0  0  0  0  0  0  0  0  0
   -8.4448   -0.4910    5.3927 H   0  0  0  0  0  0  0  0  0  0  0  0
   -7.0536   -0.4655    2.4878 H   0  0  0  0  0  0  0  0  0  0  0  0
   -8.1796    0.7145    3.1533 H   0  0  0  0  0  0  0  0  0  0  0  0
   -6.6021    1.2420    2.5791 H   0  0  0  0  0  0  0  0  0  0  0  0
   -4.5932   -0.7635    6.7193 H   0  0  0  0  0  0  0  0  0  0  0  0
   -3.0318   -0.6381    5.8918 H   0  0  0  0  0  0  0  0  0  0  0  0
   -3.9366    0.8312    6.2836 H   0  0  0  0  0  0  0  0  0  0  0  0
   -5.2635   -2.6130    4.4400 H   0  0  0  0  0  0  0  0  0  0  0  0
   -3.6816   -2.2488    3.7812 H   0  0  0  0  0  0  0  0  0  0  0  0
   -5.1283   -1.9781    2.7871 H   0  0  0  0  0  0  0  0  0  0  0  0
   -1.9407   -1.5639    3.3211 H   0  0  0  0  0  0  0  0  0  0  0  0
   -1.7954    0.7207   -1.0917 H   0  0  0  0  0  0  0  0  0  0  0  0
  1  5  1  6  0  0  0
  2  1  1  6  0  0  0
  2  7  1  0  0  0  0
  2 11  1  0  0  0  0
  2  3  1  0  0  0  0
  3  4  1  6  0  0  0
  3 21  1  0  0  0  0
  3  8  1  0  0  0  0
  4  5  1  6  0  0  0
  4 20  1  0  0  0  0
  5 19  1  6  0  0  0
  6  1  1  0  0  0  0
  9  4  1  0  0  0  0
 10  1  1  0  0  0  0
 10 12  1  0  0  0  0
 12 13  1  0  0  0  0
 12 14  1  0  0  0  0
 12 11  1  0  0  0  0
 13 33  1  0  0  0  0
 14 35  1  0  0  0  0
 15  5  1  0  0  0  0
 15 16  2  0  0  0  0
 17 15  1  0  0  0  0
 18 17  1  0  0  0  0
 18 29  1  0  0  0  0
 18 31  1  0  0  0  0
 20 53  1  0  0  0  0
 21 22  1  0  0  0  0
 22 25  1  0  0  0  0
 22 24  1  0  0  0  0
 23 22  1  0  0  0  0
 23 50  1  0  0  0  0
 24 49  1  0  0  0  0
 24 47  1  0  0  0  0
 25 28  1  0  0  0  0
 25 26  1  0  0  0  0
 26 39  1  0  0  0  0
 26 40  1  0  0  0  0
 27 45  1  0  0  0  0
 27 25  1  0  0  0  0
 28 43  1  0  0  0  0
 28 42  1  0  0  0  0
 30 18  1  0  0  0  0
 32 13  1  0  0  0  0
 34 13  1  0  0  0  0
 36 14  1  0  0  0  0
 37 14  1  0  0  0  0
 38 26  1  0  0  0  0
 41 28  1  0  0  0  0
 44 27  1  0  0  0  0
 46 27  1  0  0  0  0
 48 24  1  0  0  0  0
 51 23  1  0  0  0  0
 52 23  1  0  0  0  0
 54 19  1  0  0  0  0
M  END
$$$$
