
 OpenBabel11301904033D

 54 55  0  0  1  0  0  0  0  0999 V2000
   -2.7629   -0.4815    0.8383 C   0  0  2  0  0  0  0  0  0  0  0  0
   -2.7330   -0.1818   -0.6481 C   0  0  1  0  0  0  0  0  0  0  0  0
   -2.9931    1.3335   -0.7331 C   0  0  2  0  0  0  0  0  0  0  0  0
   -2.2642    1.8453    0.5591 C   0  0  1  0  0  0  0  0  0  0  0  0
   -1.8732    0.6184    1.4569 C   0  0  1  0  0  0  0  0  0  0  0  0
   -3.7824   -0.3630    1.2413 H   0  0  0  0  0  0  0  0  0  0  0  0
   -1.7481   -0.3559   -1.0966 H   0  0  0  0  0  0  0  0  0  0  0  0
   -2.4866    1.6911   -1.6351 H   0  0  0  0  0  0  0  0  0  0  0  0
   -2.9540    2.4712    1.1242 H   0  0  0  0  0  0  0  0  0  0  0  0
   -2.4318   -1.8691    0.8337 O   0  0  0  0  0  0  0  0  0  0  0  0
   -3.6058   -1.2061   -1.1158 O   0  0  0  0  0  0  0  0  0  0  0  0
   -3.1611   -2.3544   -0.3296 C   0  0  0  0  0  0  0  0  0  0  0  0
   -2.2065   -3.2478   -1.1715 C   0  0  0  0  0  0  0  0  0  0  0  0
   -4.3981   -3.1660    0.1391 C   0  0  0  0  0  0  0  0  0  0  0  0
   -0.4166    0.2934    1.4648 C   0  0  0  0  0  0  0  0  0  0  0  0
    0.2394    0.3448    2.5320 O   0  0  0  0  0  0  0  0  0  0  0  0
    0.2255   -0.0311    0.3052 O   0  0  0  0  0  0  0  0  0  0  0  0
    1.6041   -0.3697    0.1482 C   0  0  0  0  0  0  0  0  0  0  0  0
   -2.3094    0.8539    2.8048 O   0  0  0  0  0  0  0  0  0  0  0  0
   -1.1433    2.6689    0.2302 O   0  0  0  0  0  0  0  0  0  0  0  0
   -4.4168    1.6025   -0.7818 O   0  0  0  0  0  0  0  0  0  0  0  0
   -4.9465    3.0621   -1.3453 Si  0  0  0  0  0  0  0  0  0  0  0  0
   -4.4779    4.3395   -0.2438 C   0  0  0  0  0  0  0  0  0  0  0  0
   -4.2447    3.3781   -2.9187 C   0  0  0  0  0  0  0  0  0  0  0  0
   -6.7205    2.9485   -1.4586 C   0  0  0  0  0  0  0  0  0  0  0  0
   -7.1258    1.9223   -2.5690 C   0  0  0  0  0  0  0  0  0  0  0  0
   -7.3171    2.4465   -0.1010 C   0  0  0  0  0  0  0  0  0  0  0  0
   -7.3695    4.3328   -1.8004 C   0  0  0  0  0  0  0  0  0  0  0  0
    2.2283    0.4602    0.4770 H   0  0  0  0  0  0  0  0  0  0  0  0
    1.7993   -0.5668   -0.9054 H   0  0  0  0  0  0  0  0  0  0  0  0
    1.8486   -1.2622    0.7261 H   0  0  0  0  0  0  0  0  0  0  0  0
   -1.8163   -4.0687   -0.5679 H   0  0  0  0  0  0  0  0  0  0  0  0
   -2.7289   -3.6634   -2.0343 H   0  0  0  0  0  0  0  0  0  0  0  0
   -1.3578   -2.6689   -1.5358 H   0  0  0  0  0  0  0  0  0  0  0  0
   -4.9536   -3.5516   -0.7173 H   0  0  0  0  0  0  0  0  0  0  0  0
   -5.0661   -2.5321    0.7230 H   0  0  0  0  0  0  0  0  0  0  0  0
   -4.0899   -4.0056    0.7654 H   0  0  0  0  0  0  0  0  0  0  0  0
   -6.6970    0.9367   -2.3721 H   0  0  0  0  0  0  0  0  0  0  0  0
   -8.2121    1.8095   -2.6135 H   0  0  0  0  0  0  0  0  0  0  0  0
   -6.7951    2.2515   -3.5559 H   0  0  0  0  0  0  0  0  0  0  0  0
   -7.1994    5.0645   -1.0091 H   0  0  0  0  0  0  0  0  0  0  0  0
   -6.9786    4.7407   -2.7334 H   0  0  0  0  0  0  0  0  0  0  0  0
   -8.4512    4.2371   -1.9154 H   0  0  0  0  0  0  0  0  0  0  0  0
   -7.0828    3.1256    0.7190 H   0  0  0  0  0  0  0  0  0  0  0  0
   -8.4049    2.3747   -0.1589 H   0  0  0  0  0  0  0  0  0  0  0  0
   -6.9391    1.4563    0.1592 H   0  0  0  0  0  0  0  0  0  0  0  0
   -4.7516    4.2114   -3.4021 H   0  0  0  0  0  0  0  0  0  0  0  0
   -3.1924    3.6360   -2.8120 H   0  0  0  0  0  0  0  0  0  0  0  0
   -4.3282    2.4909   -3.5459 H   0  0  0  0  0  0  0  0  0  0  0  0
   -4.8848    5.2937   -0.5704 H   0  0  0  0  0  0  0  0  0  0  0  0
   -3.3945    4.4333   -0.2178 H   0  0  0  0  0  0  0  0  0  0  0  0
   -4.8451    4.1269    0.7580 H   0  0  0  0  0  0  0  0  0  0  0  0
   -1.5115    3.3919   -0.3164 H   0  0  0  0  0  0  0  0  0  0  0  0
   -2.1537    0.0101    3.2828 H   0  0  0  0  0  0  0  0  0  0  0  0
  1  2  1  6  0  0  0
  1  6  1  0  0  0  0
  2  3  1  6  0  0  0
  3  4  1  1  0  0  0
  4  9  1  0  0  0  0
  4  5  1  1  0  0  0
  5  1  1  6  0  0  0
  5 15  1  0  0  0  0
  5 19  1  0  0  0  0
  7  2  1  0  0  0  0
  8  3  1  0  0  0  0
 10  1  1  0  0  0  0
 11  2  1  0  0  0  0
 11 12  1  0  0  0  0
 12 14  1  0  0  0  0
 12 10  1  0  0  0  0
 13 32  1  0  0  0  0
 13 12  1  0  0  0  0
 14 36  1  0  0  0  0
 14 37  1  0  0  0  0
 15 16  2  0  0  0  0
 17 15  1  0  0  0  0
 18 17  1  0  0  0  0
 18 29  1  0  0  0  0
 18 31  1  0  0  0  0
 19 54  1  0  0  0  0
 20  4  1  0  0  0  0
 21  3  1  0  0  0  0
 22 21  1  0  0  0  0
 22 23  1  0  0  0  0
 23 51  1  0  0  0  0
 23 52  1  0  0  0  0
 24 48  1  0  0  0  0
 24 22  1  0  0  0  0
 25 22  1  0  0  0  0
 25 27  1  0  0  0  0
 26 38  1  0  0  0  0
 26 25  1  0  0  0  0
 27 46  1  0  0  0  0
 27 44  1  0  0  0  0
 28 25  1  0  0  0  0
 28 41  1  0  0  0  0
 30 18  1  0  0  0  0
 33 13  1  0  0  0  0
 34 13  1  0  0  0  0
 35 14  1  0  0  0  0
 39 26  1  0  0  0  0
 40 26  1  0  0  0  0
 42 28  1  0  0  0  0
 43 28  1  0  0  0  0
 45 27  1  0  0  0  0
 47 24  1  0  0  0  0
 49 24  1  0  0  0  0
 50 23  1  0  0  0  0
 53 20  1  0  0  0  0
M  END
$$$$
