
 OpenBabel11301904033D

 54 55  0  0  1  0  0  0  0  0999 V2000
   -2.8981   -0.0378   -0.2316 C   0  0  2  0  0  0  0  0  0  0  0  0
   -3.8627   -1.0713    0.3262 C   0  0  1  0  0  0  0  0  0  0  0  0
   -2.9525   -1.8652    1.2891 C   0  0  2  0  0  0  0  0  0  0  0  0
   -2.3756   -0.6364    2.0697 C   0  0  2  0  0  0  0  0  0  0  0  0
   -2.1955    0.5316    1.0319 C   0  0  2  0  0  0  0  0  0  0  0  0
   -2.1583   -0.5153   -0.8894 H   0  0  0  0  0  0  0  0  0  0  0  0
   -4.6823   -0.6208    0.9115 H   0  0  0  0  0  0  0  0  0  0  0  0
   -3.5806   -2.4926    1.9181 H   0  0  0  0  0  0  0  0  0  0  0  0
   -3.1326   -0.3373    2.8034 H   0  0  0  0  0  0  0  0  0  0  0  0
   -3.7954    0.7048   -1.0516 O   0  0  0  0  0  0  0  0  0  0  0  0
   -4.4259   -1.5706   -0.8846 O   0  0  0  0  0  0  0  0  0  0  0  0
   -4.6111   -0.3428   -1.6507 C   0  0  0  0  0  0  0  0  0  0  0  0
   -4.1503   -0.5880   -3.1131 C   0  0  0  0  0  0  0  0  0  0  0  0
   -6.0964    0.1134   -1.6202 C   0  0  0  0  0  0  0  0  0  0  0  0
   -0.7643    0.9007    0.8372 C   0  0  0  0  0  0  0  0  0  0  0  0
   -0.1988    1.6119    1.7031 O   0  0  0  0  0  0  0  0  0  0  0  0
   -0.0498    0.4332   -0.2296 O   0  0  0  0  0  0  0  0  0  0  0  0
    1.3411    0.6216   -0.4985 C   0  0  0  0  0  0  0  0  0  0  0  0
   -2.9132    1.6930    1.4524 O   0  0  0  0  0  0  0  0  0  0  0  0
   -1.2344   -0.9424    2.8579 O   0  0  0  0  0  0  0  0  0  0  0  0
   -2.0167   -2.6259    0.4869 O   0  0  0  0  0  0  0  0  0  0  0  0
   -1.1207   -3.9137    0.9966 Si  0  0  0  0  0  0  0  0  0  0  0  0
   -0.2709   -4.3916   -0.4679 C   0  0  0  0  0  0  0  0  0  0  0  0
    0.1014   -3.4409    2.1560 C   0  0  0  0  0  0  0  0  0  0  0  0
   -2.1196   -5.2600    1.6004 C   0  0  0  0  0  0  0  0  0  0  0  0
   -2.5254   -5.0742    3.1048 C   0  0  0  0  0  0  0  0  0  0  0  0
   -3.4122   -5.4046    0.7289 C   0  0  0  0  0  0  0  0  0  0  0  0
   -1.3302   -6.6147    1.5194 C   0  0  0  0  0  0  0  0  0  0  0  0
    1.5707    1.6853   -0.5858 H   0  0  0  0  0  0  0  0  0  0  0  0
    1.5890    0.1245   -1.4387 H   0  0  0  0  0  0  0  0  0  0  0  0
    1.9381    0.1783    0.3017 H   0  0  0  0  0  0  0  0  0  0  0  0
   -4.7239   -1.4037   -3.5587 H   0  0  0  0  0  0  0  0  0  0  0  0
   -4.2947    0.3140   -3.7127 H   0  0  0  0  0  0  0  0  0  0  0  0
   -3.0930   -0.8551   -3.1440 H   0  0  0  0  0  0  0  0  0  0  0  0
   -6.7475   -0.6583   -2.0349 H   0  0  0  0  0  0  0  0  0  0  0  0
   -6.2233    1.0288   -2.2021 H   0  0  0  0  0  0  0  0  0  0  0  0
   -6.4089    0.3146   -0.5972 H   0  0  0  0  0  0  0  0  0  0  0  0
   -3.0011   -4.1162    3.2973 H   0  0  0  0  0  0  0  0  0  0  0  0
   -3.2284   -5.8516    3.4140 H   0  0  0  0  0  0  0  0  0  0  0  0
   -1.6552   -5.1488    3.7602 H   0  0  0  0  0  0  0  0  0  0  0  0
   -1.1067   -6.8914    0.4876 H   0  0  0  0  0  0  0  0  0  0  0  0
   -0.3885   -6.5610    2.0710 H   0  0  0  0  0  0  0  0  0  0  0  0
   -1.9146   -7.4334    1.9479 H   0  0  0  0  0  0  0  0  0  0  0  0
   -3.1679   -5.5434   -0.3266 H   0  0  0  0  0  0  0  0  0  0  0  0
   -3.9984   -6.2712    1.0449 H   0  0  0  0  0  0  0  0  0  0  0  0
   -4.0591   -4.5310    0.8138 H   0  0  0  0  0  0  0  0  0  0  0  0
    0.8252   -4.2473    2.2694 H   0  0  0  0  0  0  0  0  0  0  0  0
    0.6247   -2.5552    1.7955 H   0  0  0  0  0  0  0  0  0  0  0  0
   -0.3334   -3.2338    3.1307 H   0  0  0  0  0  0  0  0  0  0  0  0
    0.4933   -5.1361   -0.2431 H   0  0  0  0  0  0  0  0  0  0  0  0
    0.2132   -3.5161   -0.9031 H   0  0  0  0  0  0  0  0  0  0  0  0
   -0.9732   -4.7991   -1.1959 H   0  0  0  0  0  0  0  0  0  0  0  0
   -1.0653   -0.1364    3.3896 H   0  0  0  0  0  0  0  0  0  0  0  0
   -2.8491    2.3147    0.6986 H   0  0  0  0  0  0  0  0  0  0  0  0
  1  2  1  1  0  0  0
  2  7  1  0  0  0  0
  2  3  1  1  0  0  0
  3  8  1  0  0  0  0
  3  4  1  1  0  0  0
  4  5  1  6  0  0  0
  4  9  1  0  0  0  0
  4 20  1  0  0  0  0
  5  1  1  6  0  0  0
  5 19  1  0  0  0  0
  6  1  1  0  0  0  0
 10  1  1  0  0  0  0
 11  2  1  0  0  0  0
 12 14  1  0  0  0  0
 12 10  1  0  0  0  0
 12 11  1  0  0  0  0
 13 12  1  0  0  0  0
 14 37  1  0  0  0  0
 15  5  1  0  0  0  0
 15 16  2  0  0  0  0
 17 15  1  0  0  0  0
 18 17  1  0  0  0  0
 18 31  1  0  0  0  0
 20 53  1  0  0  0  0
 21 22  1  0  0  0  0
 21  3  1  0  0  0  0
 22 25  1  0  0  0  0
 22 24  1  0  0  0  0
 23 50  1  0  0  0  0
 23 22  1  0  0  0  0
 24 47  1  0  0  0  0
 24 49  1  0  0  0  0
 25 26  1  0  0  0  0
 26 38  1  0  0  0  0
 26 39  1  0  0  0  0
 26 40  1  0  0  0  0
 27 46  1  0  0  0  0
 27 45  1  0  0  0  0
 27 25  1  0  0  0  0
 28 25  1  0  0  0  0
 28 43  1  0  0  0  0
 28 42  1  0  0  0  0
 29 18  1  0  0  0  0
 30 18  1  0  0  0  0
 32 13  1  0  0  0  0
 33 13  1  0  0  0  0
 34 13  1  0  0  0  0
 35 14  1  0  0  0  0
 36 14  1  0  0  0  0
 41 28  1  0  0  0  0
 44 27  1  0  0  0  0
 48 24  1  0  0  0  0
 51 23  1  0  0  0  0
 52 23  1  0  0  0  0
 54 19  1  0  0  0  0
M  END
$$$$
