
 OpenBabel11301904033D

 54 55  0  0  1  0  0  0  0  0999 V2000
   -2.3978    2.2588    1.4464 C   0  0  2  0  0  0  0  0  0  0  0  0
   -3.8864    2.1591    1.1676 C   0  0  1  0  0  0  0  0  0  0  0  0
   -3.9174    1.6886   -0.2984 C   0  0  2  0  0  0  0  0  0  0  0  0
   -2.7415    0.6491   -0.2977 C   0  0  1  0  0  0  0  0  0  0  0  0
   -1.8757    0.8754    0.9984 C   0  0  2  0  0  0  0  0  0  0  0  0
   -1.9251    3.0454    0.8390 H   0  0  0  0  0  0  0  0  0  0  0  0
   -4.3743    1.3797    1.7712 H   0  0  0  0  0  0  0  0  0  0  0  0
   -4.8584    1.1801   -0.5294 H   0  0  0  0  0  0  0  0  0  0  0  0
   -2.1386    0.7936   -1.1992 H   0  0  0  0  0  0  0  0  0  0  0  0
   -2.3913    2.6799    2.8062 O   0  0  0  0  0  0  0  0  0  0  0  0
   -4.3048    3.4329    1.6473 O   0  0  0  0  0  0  0  0  0  0  0  0
   -3.5274    3.5835    2.8674 C   0  0  0  0  0  0  0  0  0  0  0  0
   -4.3926    3.1967    4.0979 C   0  0  0  0  0  0  0  0  0  0  0  0
   -3.0326    5.0495    2.9884 C   0  0  0  0  0  0  0  0  0  0  0  0
   -0.4029    0.8321    0.8024 C   0  0  0  0  0  0  0  0  0  0  0  0
    0.3461    1.4244    1.6163 O   0  0  0  0  0  0  0  0  0  0  0  0
    0.1438    0.1161   -0.2265 O   0  0  0  0  0  0  0  0  0  0  0  0
    1.5405   -0.0790   -0.4774 C   0  0  0  0  0  0  0  0  0  0  0  0
   -2.1830   -0.0927    2.0097 O   0  0  0  0  0  0  0  0  0  0  0  0
   -3.2303   -0.6919   -0.3614 O   0  0  0  0  0  0  0  0  0  0  0  0
   -3.5840    2.7212   -1.2537 O   0  0  0  0  0  0  0  0  0  0  0  0
   -4.7196    3.6699   -1.9704 Si  0  0  0  0  0  0  0  0  0  0  0  0
   -6.1592    2.7476   -2.3455 C   0  0  0  0  0  0  0  0  0  0  0  0
   -5.1485    4.9731   -0.8879 C   0  0  0  0  0  0  0  0  0  0  0  0
   -3.9393    4.2904   -3.4482 C   0  0  0  0  0  0  0  0  0  0  0  0
   -2.5166    4.8468   -3.1007 C   0  0  0  0  0  0  0  0  0  0  0  0
   -3.7650    3.1282   -4.4843 C   0  0  0  0  0  0  0  0  0  0  0  0
   -4.7577    5.4391   -4.1256 C   0  0  0  0  0  0  0  0  0  0  0  0
    2.0500    0.8827   -0.5816 H   0  0  0  0  0  0  0  0  0  0  0  0
    1.6573   -0.6427   -1.4027 H   0  0  0  0  0  0  0  0  0  0  0  0
    1.9909   -0.6523    0.3361 H   0  0  0  0  0  0  0  0  0  0  0  0
   -3.8377    3.3674    5.0221 H   0  0  0  0  0  0  0  0  0  0  0  0
   -5.3045    3.7952    4.1222 H   0  0  0  0  0  0  0  0  0  0  0  0
   -4.6769    2.1432    4.0579 H   0  0  0  0  0  0  0  0  0  0  0  0
   -3.8816    5.7317    3.0693 H   0  0  0  0  0  0  0  0  0  0  0  0
   -2.4462    5.3341    2.1120 H   0  0  0  0  0  0  0  0  0  0  0  0
   -2.4073    5.1636    3.8777 H   0  0  0  0  0  0  0  0  0  0  0  0
   -1.8665    4.0669   -2.6973 H   0  0  0  0  0  0  0  0  0  0  0  0
   -2.0305    5.2427   -3.9952 H   0  0  0  0  0  0  0  0  0  0  0  0
   -2.5707    5.6583   -2.3722 H   0  0  0  0  0  0  0  0  0  0  0  0
   -5.7689    5.1178   -4.3818 H   0  0  0  0  0  0  0  0  0  0  0  0
   -4.8260    6.3173   -3.4818 H   0  0  0  0  0  0  0  0  0  0  0  0
   -4.2689    5.7603   -5.0480 H   0  0  0  0  0  0  0  0  0  0  0  0
   -4.7295    2.8006   -4.8793 H   0  0  0  0  0  0  0  0  0  0  0  0
   -3.1631    3.4567   -5.3346 H   0  0  0  0  0  0  0  0  0  0  0  0
   -3.2638    2.2641   -4.0398 H   0  0  0  0  0  0  0  0  0  0  0  0
   -5.7569    5.7129   -1.4061 H   0  0  0  0  0  0  0  0  0  0  0  0
   -5.7367    4.5842   -0.0599 H   0  0  0  0  0  0  0  0  0  0  0  0
   -4.2485    5.4475   -0.4969 H   0  0  0  0  0  0  0  0  0  0  0  0
   -6.8450    3.3591   -2.9296 H   0  0  0  0  0  0  0  0  0  0  0  0
   -6.6642    2.4516   -1.4249 H   0  0  0  0  0  0  0  0  0  0  0  0
   -5.9019    1.8509   -2.9093 H   0  0  0  0  0  0  0  0  0  0  0  0
   -3.7558   -0.7410   -1.1883 H   0  0  0  0  0  0  0  0  0  0  0  0
   -1.6649    0.1745    2.7992 H   0  0  0  0  0  0  0  0  0  0  0  0
  1  5  1  6  0  0  0
  1 10  1  0  0  0  0
  2  3  1  6  0  0  0
  2  1  1  0  0  0  0
  2 11  1  0  0  0  0
  2  7  1  0  0  0  0
  3  4  1  6  0  0  0
  4  5  1  1  0  0  0
  5 15  1  6  0  0  0
  5 19  1  0  0  0  0
  6  1  1  0  0  0  0
  8  3  1  0  0  0  0
  9  4  1  0  0  0  0
 10 12  1  0  0  0  0
 11 12  1  0  0  0  0
 12 14  1  0  0  0  0
 12 13  1  0  0  0  0
 13 33  1  0  0  0  0
 13 32  1  0  0  0  0
 14 35  1  0  0  0  0
 14 37  1  0  0  0  0
 15 16  2  0  0  0  0
 17 15  1  0  0  0  0
 18 17  1  0  0  0  0
 18 31  1  0  0  0  0
 19 54  1  0  0  0  0
 20  4  1  0  0  0  0
 21  3  1  0  0  0  0
 22 21  1  0  0  0  0
 22 24  1  0  0  0  0
 23 22  1  0  0  0  0
 23 51  1  0  0  0  0
 24 49  1  0  0  0  0
 24 48  1  0  0  0  0
 25 26  1  0  0  0  0
 25 22  1  0  0  0  0
 26 38  1  0  0  0  0
 26 40  1  0  0  0  0
 27 46  1  0  0  0  0
 27 25  1  0  0  0  0
 28 42  1  0  0  0  0
 28 25  1  0  0  0  0
 29 18  1  0  0  0  0
 30 18  1  0  0  0  0
 34 13  1  0  0  0  0
 36 14  1  0  0  0  0
 39 26  1  0  0  0  0
 41 28  1  0  0  0  0
 43 28  1  0  0  0  0
 44 27  1  0  0  0  0
 45 27  1  0  0  0  0
 47 24  1  0  0  0  0
 50 23  1  0  0  0  0
 52 23  1  0  0  0  0
 53 20  1  0  0  0  0
M  END
$$$$
