
 OpenBabel11301904033D

 54 55  0  0  1  0  0  0  0  0999 V2000
   -2.0600    2.3553    1.3633 C   0  0  1  0  0  0  0  0  0  0  0  0
   -2.5182    2.2862    2.8206 C   0  0  1  0  0  0  0  0  0  0  0  0
   -2.9158    0.8179    3.1289 C   0  0  2  0  0  0  0  0  0  0  0  0
   -2.4422   -0.0234    1.9140 C   0  0  1  0  0  0  0  0  0  0  0  0
   -1.6811    0.9143    0.9294 C   0  0  1  0  0  0  0  0  0  0  0  0
   -1.2271    3.0604    1.2459 H   0  0  0  0  0  0  0  0  0  0  0  0
   -1.7078    2.6061    3.4831 H   0  0  0  0  0  0  0  0  0  0  0  0
   -2.3756    0.5168    4.0318 H   0  0  0  0  0  0  0  0  0  0  0  0
   -3.3259   -0.4300    1.4150 H   0  0  0  0  0  0  0  0  0  0  0  0
   -3.1916    2.8839    0.6749 O   0  0  0  0  0  0  0  0  0  0  0  0
   -3.6034    3.2122    2.9392 O   0  0  0  0  0  0  0  0  0  0  0  0
   -3.8732    3.7153    1.6222 C   0  0  0  0  0  0  0  0  0  0  0  0
   -3.4012    5.1924    1.5338 C   0  0  0  0  0  0  0  0  0  0  0  0
   -5.3886    3.6042    1.3182 C   0  0  0  0  0  0  0  0  0  0  0  0
   -0.2000    0.7178    0.9386 C   0  0  0  0  0  0  0  0  0  0  0  0
    0.4637    0.9663    1.9737 O   0  0  0  0  0  0  0  0  0  0  0  0
    0.4248    0.2657   -0.1913 O   0  0  0  0  0  0  0  0  0  0  0  0
    1.8244    0.0449   -0.3827 C   0  0  0  0  0  0  0  0  0  0  0  0
   -2.1664    0.6654   -0.3975 O   0  0  0  0  0  0  0  0  0  0  0  0
   -1.6747   -1.1510    2.3404 O   0  0  0  0  0  0  0  0  0  0  0  0
   -4.3524    0.7442    3.2981 O   0  0  0  0  0  0  0  0  0  0  0  0
   -5.0204   -0.3541    4.3231 Si  0  0  0  0  0  0  0  0  0  0  0  0
   -4.6258   -1.9745    3.7985 C   0  0  0  0  0  0  0  0  0  0  0  0
   -4.3768   -0.0921    5.9303 C   0  0  0  0  0  0  0  0  0  0  0  0
   -6.7764   -0.0613    4.2723 C   0  0  0  0  0  0  0  0  0  0  0  0
   -7.0742    1.4212    4.6812 C   0  0  0  0  0  0  0  0  0  0  0  0
   -7.3252   -0.2832    2.8221 C   0  0  0  0  0  0  0  0  0  0  0  0
   -7.5547   -1.0155    5.2380 C   0  0  0  0  0  0  0  0  0  0  0  0
    2.3711    0.9841   -0.2898 H   0  0  0  0  0  0  0  0  0  0  0  0
    1.9749   -0.3569   -1.3846 H   0  0  0  0  0  0  0  0  0  0  0  0
    2.1983   -0.6731    0.3478 H   0  0  0  0  0  0  0  0  0  0  0  0
   -3.5521    5.5825    0.5251 H   0  0  0  0  0  0  0  0  0  0  0  0
   -3.9589    5.8106    2.2397 H   0  0  0  0  0  0  0  0  0  0  0  0
   -2.3430    5.2719    1.7824 H   0  0  0  0  0  0  0  0  0  0  0  0
   -5.9710    4.1498    2.0640 H   0  0  0  0  0  0  0  0  0  0  0  0
   -5.7010    2.5594    1.3333 H   0  0  0  0  0  0  0  0  0  0  0  0
   -5.6085    4.0107    0.3267 H   0  0  0  0  0  0  0  0  0  0  0  0
   -6.6033    2.1280    3.9946 H   0  0  0  0  0  0  0  0  0  0  0  0
   -8.1482    1.6190    4.6669 H   0  0  0  0  0  0  0  0  0  0  0  0
   -6.7195    1.6391    5.6901 H   0  0  0  0  0  0  0  0  0  0  0  0
   -7.3741   -2.0636    4.9959 H   0  0  0  0  0  0  0  0  0  0  0  0
   -7.2779   -0.8480    6.2790 H   0  0  0  0  0  0  0  0  0  0  0  0
   -8.6308   -0.8466    5.1586 H   0  0  0  0  0  0  0  0  0  0  0  0
   -7.2174   -1.3229    2.5093 H   0  0  0  0  0  0  0  0  0  0  0  0
   -8.3894   -0.0387    2.7698 H   0  0  0  0  0  0  0  0  0  0  0  0
   -6.8080    0.3465    2.0953 H   0  0  0  0  0  0  0  0  0  0  0  0
   -4.9583   -0.6363    6.6712 H   0  0  0  0  0  0  0  0  0  0  0  0
   -3.3495   -0.4511    5.9822 H   0  0  0  0  0  0  0  0  0  0  0  0
   -4.3911    0.9705    6.1687 H   0  0  0  0  0  0  0  0  0  0  0  0
   -5.1470   -2.7079    4.4120 H   0  0  0  0  0  0  0  0  0  0  0  0
   -3.5563   -2.1440    3.9021 H   0  0  0  0  0  0  0  0  0  0  0  0
   -4.9029   -2.1141    2.7548 H   0  0  0  0  0  0  0  0  0  0  0  0
   -1.4707   -1.6464    1.5196 H   0  0  0  0  0  0  0  0  0  0  0  0
   -1.7248    1.3259   -0.9711 H   0  0  0  0  0  0  0  0  0  0  0  0
  1  5  1  6  0  0  0
  2  1  1  6  0  0  0
  2 11  1  0  0  0  0
  2  3  1  0  0  0  0
  2  7  1  0  0  0  0
  3  4  1  6  0  0  0
  3 21  1  0  0  0  0
  3  8  1  0  0  0  0
  4  5  1  6  0  0  0
  4 20  1  0  0  0  0
  5 19  1  6  0  0  0
  5 15  1  0  0  0  0
  6  1  1  0  0  0  0
  9  4  1  0  0  0  0
 10  1  1  0  0  0  0
 10 12  1  0  0  0  0
 12 11  1  0  0  0  0
 13 12  1  0  0  0  0
 13 34  1  0  0  0  0
 13 33  1  0  0  0  0
 14 36  1  0  0  0  0
 14 12  1  0  0  0  0
 14 35  1  0  0  0  0
 15 16  2  0  0  0  0
 17 15  1  0  0  0  0
 18 29  1  0  0  0  0
 18 17  1  0  0  0  0
 18 31  1  0  0  0  0
 21 22  1  0  0  0  0
 22 24  1  0  0  0  0
 23 51  1  0  0  0  0
 23 22  1  0  0  0  0
 23 50  1  0  0  0  0
 24 48  1  0  0  0  0
 24 49  1  0  0  0  0
 24 47  1  0  0  0  0
 25 22  1  0  0  0  0
 25 26  1  0  0  0  0
 25 28  1  0  0  0  0
 26 40  1  0  0  0  0
 27 25  1  0  0  0  0
 28 42  1  0  0  0  0
 30 18  1  0  0  0  0
 32 13  1  0  0  0  0
 37 14  1  0  0  0  0
 38 26  1  0  0  0  0
 39 26  1  0  0  0  0
 41 28  1  0  0  0  0
 43 28  1  0  0  0  0
 44 27  1  0  0  0  0
 45 27  1  0  0  0  0
 46 27  1  0  0  0  0
 52 23  1  0  0  0  0
 53 20  1  0  0  0  0
 54 19  1  0  0  0  0
M  END
$$$$
