
 OpenBabel11301904033D

 54 55  0  0  1  0  0  0  0  0999 V2000
   -3.0396   -0.2718    0.3659 C   0  0  1  0  0  0  0  0  0  0  0  0
   -2.6387   -1.7213    0.5543 C   0  0  2  0  0  0  0  0  0  0  0  0
   -2.5799   -1.9139    2.0836 C   0  0  2  0  0  0  0  0  0  0  0  0
   -2.3735   -0.4504    2.6144 C   0  0  2  0  0  0  0  0  0  0  0  0
   -2.1455    0.4841    1.3743 C   0  0  2  0  0  0  0  0  0  0  0  0
   -4.0863   -0.1003    0.6697 H   0  0  0  0  0  0  0  0  0  0  0  0
   -1.6394   -1.9315    0.1551 H   0  0  0  0  0  0  0  0  0  0  0  0
   -3.5254   -2.3109    2.4603 H   0  0  0  0  0  0  0  0  0  0  0  0
   -3.2976   -0.1398    3.1168 H   0  0  0  0  0  0  0  0  0  0  0  0
   -2.9760   -0.1782   -1.0543 O   0  0  0  0  0  0  0  0  0  0  0  0
   -3.6002   -2.3340   -0.2985 O   0  0  0  0  0  0  0  0  0  0  0  0
   -3.5890   -1.4421   -1.4516 C   0  0  0  0  0  0  0  0  0  0  0  0
   -5.0525   -1.2046   -1.9131 C   0  0  0  0  0  0  0  0  0  0  0  0
   -2.7661   -2.0872   -2.5989 C   0  0  0  0  0  0  0  0  0  0  0  0
   -0.7083    0.6468    1.0182 C   0  0  0  0  0  0  0  0  0  0  0  0
    0.0168    1.3562    1.7562 O   0  0  0  0  0  0  0  0  0  0  0  0
   -0.1628    0.0256   -0.0702 O   0  0  0  0  0  0  0  0  0  0  0  0
    1.2131    0.0260   -0.4579 C   0  0  0  0  0  0  0  0  0  0  0  0
   -2.6943    1.7844    1.5983 O   0  0  0  0  0  0  0  0  0  0  0  0
   -1.3484   -0.3436    3.6052 O   0  0  0  0  0  0  0  0  0  0  0  0
   -1.4548   -2.7119    2.5170 O   0  0  0  0  0  0  0  0  0  0  0  0
   -1.4181   -4.3414    2.3051 Si  0  0  0  0  0  0  0  0  0  0  0  0
   -2.9062   -5.0442    2.8999 C   0  0  0  0  0  0  0  0  0  0  0  0
   -1.2357   -4.7283    0.6079 C   0  0  0  0  0  0  0  0  0  0  0  0
   -0.0035   -4.8980    3.2337 C   0  0  0  0  0  0  0  0  0  0  0  0
    1.2783   -4.1405    2.7445 C   0  0  0  0  0  0  0  0  0  0  0  0
   -0.2039   -4.5807    4.7535 C   0  0  0  0  0  0  0  0  0  0  0  0
    0.2404   -6.4348    3.0696 C   0  0  0  0  0  0  0  0  0  0  0  0
    1.5380    1.0382   -0.6960 H   0  0  0  0  0  0  0  0  0  0  0  0
    1.3337   -0.6066   -1.3382 H   0  0  0  0  0  0  0  0  0  0  0  0
    1.8268   -0.3764    0.3485 H   0  0  0  0  0  0  0  0  0  0  0  0
   -5.0764   -0.5481   -2.7866 H   0  0  0  0  0  0  0  0  0  0  0  0
   -5.5255   -2.1542   -2.1705 H   0  0  0  0  0  0  0  0  0  0  0  0
   -5.6362   -0.7379   -1.1182 H   0  0  0  0  0  0  0  0  0  0  0  0
   -3.1797   -3.0669   -2.8485 H   0  0  0  0  0  0  0  0  0  0  0  0
   -1.7262   -2.2210   -2.2977 H   0  0  0  0  0  0  0  0  0  0  0  0
   -2.7883   -1.4562   -3.4895 H   0  0  0  0  0  0  0  0  0  0  0  0
    1.1732   -3.0585    2.8545 H   0  0  0  0  0  0  0  0  0  0  0  0
    2.1519   -4.4444    3.3255 H   0  0  0  0  0  0  0  0  0  0  0  0
    1.4964   -4.3561    1.6969 H   0  0  0  0  0  0  0  0  0  0  0  0
   -0.6231   -7.0170    3.3945 H   0  0  0  0  0  0  0  0  0  0  0  0
    0.4606   -6.6974    2.0330 H   0  0  0  0  0  0  0  0  0  0  0  0
    1.0931   -6.7533    3.6741 H   0  0  0  0  0  0  0  0  0  0  0  0
   -1.0355   -5.1490    5.1739 H   0  0  0  0  0  0  0  0  0  0  0  0
    0.6896   -4.8443    5.3241 H   0  0  0  0  0  0  0  0  0  0  0  0
   -0.3973   -3.5181    4.9210 H   0  0  0  0  0  0  0  0  0  0  0  0
   -1.0791   -5.7985    0.4814 H   0  0  0  0  0  0  0  0  0  0  0  0
   -2.1361   -4.4591    0.0615 H   0  0  0  0  0  0  0  0  0  0  0  0
   -0.3910   -4.1859    0.1838 H   0  0  0  0  0  0  0  0  0  0  0  0
   -2.8201   -6.1290    2.9262 H   0  0  0  0  0  0  0  0  0  0  0  0
   -3.7320   -4.7803    2.2378 H   0  0  0  0  0  0  0  0  0  0  0  0
   -3.1273   -4.6736    3.9011 H   0  0  0  0  0  0  0  0  0  0  0  0
   -1.6146   -0.9764    4.3040 H   0  0  0  0  0  0  0  0  0  0  0  0
   -2.6353    2.2360    0.7297 H   0  0  0  0  0  0  0  0  0  0  0  0
  1  2  1  1  0  0  0
  1  6  1  0  0  0  0
  2  3  1  1  0  0  0
  3  8  1  0  0  0  0
  3 21  1  0  0  0  0
  3  4  1  1  0  0  0
  4  5  1  6  0  0  0
  4  9  1  0  0  0  0
  4 20  1  0  0  0  0
  5  1  1  6  0  0  0
  5 19  1  0  0  0  0
  7  2  1  0  0  0  0
 10  1  1  0  0  0  0
 11  2  1  0  0  0  0
 12 10  1  0  0  0  0
 12 11  1  0  0  0  0
 13 12  1  0  0  0  0
 13 34  1  0  0  0  0
 14 36  1  0  0  0  0
 14 12  1  0  0  0  0
 15  5  1  0  0  0  0
 15 16  2  0  0  0  0
 17 15  1  0  0  0  0
 18 17  1  0  0  0  0
 18 31  1  0  0  0  0
 20 53  1  0  0  0  0
 22 21  1  0  0  0  0
 22 23  1  0  0  0  0
 22 25  1  0  0  0  0
 23 50  1  0  0  0  0
 23 52  1  0  0  0  0
 24 22  1  0  0  0  0
 25 27  1  0  0  0  0
 26 38  1  0  0  0  0
 26 25  1  0  0  0  0
 26 39  1  0  0  0  0
 27 46  1  0  0  0  0
 27 44  1  0  0  0  0
 27 45  1  0  0  0  0
 28 25  1  0  0  0  0
 28 41  1  0  0  0  0
 28 43  1  0  0  0  0
 29 18  1  0  0  0  0
 30 18  1  0  0  0  0
 32 13  1  0  0  0  0
 33 13  1  0  0  0  0
 35 14  1  0  0  0  0
 37 14  1  0  0  0  0
 40 26  1  0  0  0  0
 42 28  1  0  0  0  0
 47 24  1  0  0  0  0
 48 24  1  0  0  0  0
 49 24  1  0  0  0  0
 51 23  1  0  0  0  0
 54 19  1  0  0  0  0
M  END
$$$$
