
 OpenBabel11301904033D

 54 55  0  0  1  0  0  0  0  0999 V2000
   -2.6580   -0.4959   -0.2547 C   0  0  2  0  0  0  0  0  0  0  0  0
   -3.6268    0.6577   -0.4479 C   0  0  1  0  0  0  0  0  0  0  0  0
   -4.2719    0.8038    0.9413 C   0  0  2  0  0  0  0  0  0  0  0  0
   -3.0077    0.6045    1.8492 C   0  0  2  0  0  0  0  0  0  0  0  0
   -1.8535   -0.0380    0.9805 C   0  0  1  0  0  0  0  0  0  0  0  0
   -3.1769   -1.4339   -0.0054 H   0  0  0  0  0  0  0  0  0  0  0  0
   -3.1104    1.5988   -0.6992 H   0  0  0  0  0  0  0  0  0  0  0  0
   -4.6678    1.8149    1.0363 H   0  0  0  0  0  0  0  0  0  0  0  0
   -2.7060    1.5760    2.2500 H   0  0  0  0  0  0  0  0  0  0  0  0
   -2.1323   -0.6143   -1.5743 O   0  0  0  0  0  0  0  0  0  0  0  0
   -4.3472    0.2095   -1.5909 O   0  0  0  0  0  0  0  0  0  0  0  0
   -3.3132   -0.4091   -2.4016 C   0  0  0  0  0  0  0  0  0  0  0  0
   -3.8601   -1.7659   -2.9199 C   0  0  0  0  0  0  0  0  0  0  0  0
   -2.9355    0.5131   -3.5912 C   0  0  0  0  0  0  0  0  0  0  0  0
   -0.7164    0.8537    0.6003 C   0  0  0  0  0  0  0  0  0  0  0  0
   -0.7493    2.0921    0.7986 O   0  0  0  0  0  0  0  0  0  0  0  0
    0.3789    0.2921    0.0038 O   0  0  0  0  0  0  0  0  0  0  0  0
    1.5484    0.9739   -0.4593 C   0  0  0  0  0  0  0  0  0  0  0  0
   -1.3005   -1.1773    1.6476 O   0  0  0  0  0  0  0  0  0  0  0  0
   -3.3076   -0.1985    2.9858 O   0  0  0  0  0  0  0  0  0  0  0  0
   -5.2906   -0.2210    1.0543 O   0  0  0  0  0  0  0  0  0  0  0  0
   -6.6511   -0.0299    1.9666 Si  0  0  0  0  0  0  0  0  0  0  0  0
   -7.3088   -1.6531    2.0968 C   0  0  0  0  0  0  0  0  0  0  0  0
   -6.2508    0.5198    3.5767 C   0  0  0  0  0  0  0  0  0  0  0  0
   -7.8255    1.0504    1.1688 C   0  0  0  0  0  0  0  0  0  0  0  0
   -7.6002    2.5575    1.5358 C   0  0  0  0  0  0  0  0  0  0  0  0
   -7.7188    0.8817   -0.3829 C   0  0  0  0  0  0  0  0  0  0  0  0
   -9.2981    0.7110    1.5912 C   0  0  0  0  0  0  0  0  0  0  0  0
    1.2846    1.6738   -1.2521 H   0  0  0  0  0  0  0  0  0  0  0  0
    2.2514    0.2410   -0.8537 H   0  0  0  0  0  0  0  0  0  0  0  0
    2.0273    1.5150    0.3573 H   0  0  0  0  0  0  0  0  0  0  0  0
   -4.7447   -1.6134   -3.5438 H   0  0  0  0  0  0  0  0  0  0  0  0
   -3.0988   -2.2797   -3.5098 H   0  0  0  0  0  0  0  0  0  0  0  0
   -4.1411   -2.4042   -2.0805 H   0  0  0  0  0  0  0  0  0  0  0  0
   -3.8030    0.7054   -4.2268 H   0  0  0  0  0  0  0  0  0  0  0  0
   -2.1562    0.0474   -4.1976 H   0  0  0  0  0  0  0  0  0  0  0  0
   -2.5605    1.4682   -3.2210 H   0  0  0  0  0  0  0  0  0  0  0  0
   -6.5913    2.8923    1.3139 H   0  0  0  0  0  0  0  0  0  0  0  0
   -8.2788    3.2000    0.9698 H   0  0  0  0  0  0  0  0  0  0  0  0
   -7.7902    2.7399    2.5960 H   0  0  0  0  0  0  0  0  0  0  0  0
   -9.5948   -0.2843    1.2554 H   0  0  0  0  0  0  0  0  0  0  0  0
   -9.4235    0.7603    2.6757 H   0  0  0  0  0  0  0  0  0  0  0  0
  -10.0044    1.4172    1.1463 H   0  0  0  0  0  0  0  0  0  0  0  0
   -7.8442   -0.1626   -0.6812 H   0  0  0  0  0  0  0  0  0  0  0  0
   -8.4898    1.4651   -0.8918 H   0  0  0  0  0  0  0  0  0  0  0  0
   -6.7535    1.2304   -0.7522 H   0  0  0  0  0  0  0  0  0  0  0  0
   -7.1613    0.6510    4.1609 H   0  0  0  0  0  0  0  0  0  0  0  0
   -5.6307   -0.2224    4.0776 H   0  0  0  0  0  0  0  0  0  0  0  0
   -5.7117    1.4649    3.5337 H   0  0  0  0  0  0  0  0  0  0  0  0
   -8.1734   -1.6597    2.7598 H   0  0  0  0  0  0  0  0  0  0  0  0
   -6.5533   -2.3236    2.5060 H   0  0  0  0  0  0  0  0  0  0  0  0
   -7.6040   -2.0165    1.1127 H   0  0  0  0  0  0  0  0  0  0  0  0
   -3.5906   -1.0605    2.6155 H   0  0  0  0  0  0  0  0  0  0  0  0
   -0.7629   -1.6463    0.9758 H   0  0  0  0  0  0  0  0  0  0  0  0
  1  2  1  6  0  0  0
  1  6  1  0  0  0  0
  2  3  1  1  0  0  0
  3  8  1  0  0  0  0
  3 21  1  0  0  0  0
  3  4  1  1  0  0  0
  4  5  1  6  0  0  0
  4  9  1  0  0  0  0
  4 20  1  0  0  0  0
  5  1  1  6  0  0  0
  5 19  1  0  0  0  0
  7  2  1  0  0  0  0
 10  1  1  0  0  0  0
 11  2  1  0  0  0  0
 12 11  1  0  0  0  0
 12 10  1  0  0  0  0
 13 12  1  0  0  0  0
 13 34  1  0  0  0  0
 14 37  1  0  0  0  0
 14 12  1  0  0  0  0
 15 16  2  0  0  0  0
 15  5  1  0  0  0  0
 17 15  1  0  0  0  0
 18 17  1  0  0  0  0
 18 31  1  0  0  0  0
 21 22  1  0  0  0  0
 22 23  1  0  0  0  0
 22 24  1  0  0  0  0
 23 51  1  0  0  0  0
 23 50  1  0  0  0  0
 24 48  1  0  0  0  0
 24 47  1  0  0  0  0
 25 26  1  0  0  0  0
 25 28  1  0  0  0  0
 25 22  1  0  0  0  0
 26 40  1  0  0  0  0
 27 25  1  0  0  0  0
 28 42  1  0  0  0  0
 29 18  1  0  0  0  0
 30 18  1  0  0  0  0
 32 13  1  0  0  0  0
 33 13  1  0  0  0  0
 35 14  1  0  0  0  0
 36 14  1  0  0  0  0
 38 26  1  0  0  0  0
 39 26  1  0  0  0  0
 41 28  1  0  0  0  0
 43 28  1  0  0  0  0
 44 27  1  0  0  0  0
 45 27  1  0  0  0  0
 46 27  1  0  0  0  0
 49 24  1  0  0  0  0
 52 23  1  0  0  0  0
 53 20  1  0  0  0  0
 54 19  1  0  0  0  0
M  END
$$$$
