
 OpenBabel11301903543D

 44 44  0  0  1  0  0  0  0  0999 V2000
    4.6718   -0.6531   -1.7298 C   0  0  2  0  0  0  0  0  0  0  0  0
    3.1538   -0.8220   -2.1374 C   0  0  2  0  0  0  0  0  0  0  0  0
    2.3515   -1.8617   -1.2401 C   0  0  2  0  0  0  0  0  0  0  0  0
    3.1694   -3.2041   -1.1946 C   0  0  0  0  0  0  0  0  0  0  0  0
    4.6069   -3.0238   -0.9153 C   0  0  0  0  0  0  0  0  0  0  0  0
    5.2582   -0.4539   -2.6325 H   0  0  0  0  0  0  0  0  0  0  0  0
    2.6639    0.1517   -2.0455 H   0  0  0  0  0  0  0  0  0  0  0  0
    2.7470   -3.8744   -0.4402 H   0  0  0  0  0  0  0  0  0  0  0  0
    3.1212   -3.7088   -2.1582 H   0  0  0  0  0  0  0  0  0  0  0  0
    5.2444   -1.8500   -1.1774 O   0  0  0  0  0  0  0  0  0  0  0  0
    5.2837   -3.9754   -0.4627 O   0  0  0  0  0  0  0  0  0  0  0  0
    4.9731    0.5379   -0.7686 C   0  0  0  0  0  0  0  0  0  0  0  0
    6.4685    0.9341   -0.7283 C   0  0  0  0  0  0  0  0  0  0  0  0
    3.0556   -1.1245   -3.6703 C   0  0  0  0  0  0  0  0  0  0  0  0
    1.0414   -1.9720   -1.8847 O   0  0  0  0  0  0  0  0  0  0  0  0
   -0.0337   -3.2250   -1.8219 Si  0  0  0  0  0  0  0  0  0  0  0  0
    0.5602   -4.6200   -2.6952 C   0  0  0  0  0  0  0  0  0  0  0  0
   -1.4740   -2.6434   -2.6385 C   0  0  0  0  0  0  0  0  0  0  0  0
   -0.4582   -3.6734   -0.1872 C   0  0  0  0  0  0  0  0  0  0  0  0
   -1.2343   -2.4013   -3.6760 H   0  0  0  0  0  0  0  0  0  0  0  0
   -2.2464   -3.4139   -2.6143 H   0  0  0  0  0  0  0  0  0  0  0  0
   -1.8489   -1.7479   -2.1418 H   0  0  0  0  0  0  0  0  0  0  0  0
   -1.2469   -4.4255   -0.2152 H   0  0  0  0  0  0  0  0  0  0  0  0
    0.4024   -4.0972    0.3304 H   0  0  0  0  0  0  0  0  0  0  0  0
   -0.8264   -2.7994    0.3526 H   0  0  0  0  0  0  0  0  0  0  0  0
    1.0694   -4.2985   -3.6035 H   0  0  0  0  0  0  0  0  0  0  0  0
   -0.2781   -5.2611   -2.9680 H   0  0  0  0  0  0  0  0  0  0  0  0
    1.2415   -5.2010   -2.0770 H   0  0  0  0  0  0  0  0  0  0  0  0
    3.5154   -2.0831   -3.9173 H   0  0  0  0  0  0  0  0  0  0  0  0
    2.0173   -1.1335   -4.0082 H   0  0  0  0  0  0  0  0  0  0  0  0
    3.5666   -0.3460   -4.2438 H   0  0  0  0  0  0  0  0  0  0  0  0
    4.6665    0.2862    0.2452 H   0  0  0  0  0  0  0  0  0  0  0  0
    4.4089    1.4188   -1.0836 H   0  0  0  0  0  0  0  0  0  0  0  0
    7.0932    0.0664   -0.5052 H   0  0  0  0  0  0  0  0  0  0  0  0
    6.7723    1.3522   -1.6915 H   0  0  0  0  0  0  0  0  0  0  0  0
    6.6344    1.6899    0.0425 H   0  0  0  0  0  0  0  0  0  0  0  0
    2.1404   -1.3224    0.2315 C   0  0  0  0  0  0  0  0  0  0  0  0
    1.5902    0.0235    0.3758 C   0  0  0  0  0  0  0  0  0  0  0  0
    0.3470    0.3757    0.0270 C   0  0  0  0  0  0  0  0  0  0  0  0
    1.4980   -1.9998    0.7926 H   0  0  0  0  0  0  0  0  0  0  0  0
    3.0969   -1.3505    0.7604 H   0  0  0  0  0  0  0  0  0  0  0  0
    2.1780    0.7340    0.7532 H   0  0  0  0  0  0  0  0  0  0  0  0
    0.0453    1.3146    0.1439 H   0  0  0  0  0  0  0  0  0  0  0  0
   -0.2906   -0.2823   -0.3498 H   0  0  0  0  0  0  0  0  0  0  0  0
  1  2  1  6  0  0  0
  1 10  1  0  0  0  0
  1 12  1  0  0  0  0
  2  7  1  0  0  0  0
  2  3  1  1  0  0  0
  3 15  1  6  0  0  0
  3  4  1  0  0  0  0
  3 37  1  0  0  0  0
  4  5  1  0  0  0  0
  4  8  1  0  0  0  0
  5 11  2  0  0  0  0
  6  1  1  0  0  0  0
  9  4  1  0  0  0  0
 10  5  1  0  0  0  0
 12 13  1  0  0  0  0
 12 32  1  0  0  0  0
 13 34  1  0  0  0  0
 13 36  1  0  0  0  0
 14  2  1  0  0  0  0
 15 16  1  0  0  0  0
 16 19  1  0  0  0  0
 17 28  1  0  0  0  0
 17 16  1  0  0  0  0
 18 21  1  0  0  0  0
 18 22  1  0  0  0  0
 18 16  1  0  0  0  0
 19 24  1  0  0  0  0
 19 25  1  0  0  0  0
 20 18  1  0  0  0  0
 23 19  1  0  0  0  0
 26 17  1  0  0  0  0
 27 17  1  0  0  0  0
 29 14  1  0  0  0  0
 30 14  1  0  0  0  0
 31 14  1  0  0  0  0
 33 12  1  0  0  0  0
 35 13  1  0  0  0  0
 37 38  1  0  0  0  0
 37 41  1  0  0  0  0
 37 40  1  0  0  0  0
 38 42  1  0  0  0  0
 39 43  1  0  0  0  0
 39 38  2  0  0  0  0
 44 39  1  0  0  0  0
M  END
$$$$
