S11_1
     RDKit          3D

 44 46  0  0  1  0  0  0  0  0999 V2000
   -1.3199   -0.9757   -0.4330 C   0  0  1  0  0  0  0  0  0  0  0  0
    0.0773   -0.2616   -0.3514 C   0  0  1  0  0  0  0  0  0  0  0  0
   -0.1975    1.2707   -0.4794 C   0  0  1  0  0  0  0  0  0  0  0  0
   -0.9379    1.8464    0.7208 C   0  0  0  0  0  0  0  0  0  0  0  0
   -1.9377    0.8481    1.3184 C   0  0  0  0  0  0  0  0  0  0  0  0
   -2.4567   -0.2087    0.3319 C   0  0  1  0  0  0  0  0  0  0  0  0
    1.1680    1.7317   -0.8747 C   0  0  0  0  0  0  0  0  0  0  0  0
    1.7496    0.6229   -1.3605 C   0  0  0  0  0  0  0  0  0  0  0  0
    3.0435    0.1281   -0.8091 C   0  0  0  0  0  0  0  0  0  0  0  0
    2.6114   -1.0250    0.1286 C   0  0  0  0  0  0  0  0  0  0  0  0
    1.1539   -0.8291    0.7867 C   0  0  0  0  0  0  0  0  0  0  0  0
   -1.7497   -1.1314   -1.8011 O   0  0  0  0  0  0  0  0  0  0  0  0
   -1.3534   -2.3703   -2.3765 C   0  0  0  0  0  0  0  0  0  0  0  0
   -3.5342    0.4074   -0.5750 C   0  0  0  0  0  0  0  0  0  0  0  0
   -0.8282    1.4605   -1.3629 H   0  0  0  0  0  0  0  0  0  0  0  0
    0.7555   -2.2232    1.3196 C   0  0  0  0  0  0  0  0  0  0  0  0
    1.3615    0.0663    2.0245 C   0  0  0  0  0  0  0  0  0  0  0  0
    0.8407   -0.4400   -1.5791 O   0  0  0  0  0  0  0  0  0  0  0  0
    1.7626    3.0195   -0.4389 C   0  0  0  0  0  0  0  0  0  0  0  0
   -1.2772   -1.9770    0.0000 H   0  0  0  0  0  0  0  0  0  0  0  0
   -0.2642    2.2025    1.5057 H   0  0  0  0  0  0  0  0  0  0  0  0
   -1.4834    2.7399    0.3891 H   0  0  0  0  0  0  0  0  0  0  0  0
   -1.4798    0.3193    2.1577 H   0  0  0  0  0  0  0  0  0  0  0  0
   -2.7727    1.4026    1.7654 H   0  0  0  0  0  0  0  0  0  0  0  0
   -2.9840   -0.9619    0.9352 H   0  0  0  0  0  0  0  0  0  0  0  0
    3.7106   -0.2282   -1.5994 H   0  0  0  0  0  0  0  0  0  0  0  0
    3.5745    0.8924   -0.2326 H   0  0  0  0  0  0  0  0  0  0  0  0
    2.6009   -1.9514   -0.4647 H   0  0  0  0  0  0  0  0  0  0  0  0
    3.3753   -1.1799    0.9009 H   0  0  0  0  0  0  0  0  0  0  0  0
   -1.6191   -2.3556   -3.4368 H   0  0  0  0  0  0  0  0  0  0  0  0
   -1.8937   -3.1922   -1.8969 H   0  0  0  0  0  0  0  0  0  0  0  0
   -0.2769   -2.5360   -2.2873 H   0  0  0  0  0  0  0  0  0  0  0  0
   -4.0399   -0.3646   -1.1648 H   0  0  0  0  0  0  0  0  0  0  0  0
   -3.1175    1.1488   -1.2629 H   0  0  0  0  0  0  0  0  0  0  0  0
   -4.3052    0.9051    0.0237 H   0  0  0  0  0  0  0  0  0  0  0  0
    0.6406   -2.9456    0.5043 H   0  0  0  0  0  0  0  0  0  0  0  0
   -0.1776   -2.1815    1.8915 H   0  0  0  0  0  0  0  0  0  0  0  0
    1.5238   -2.6226    1.9928 H   0  0  0  0  0  0  0  0  0  0  0  0
    1.7117    1.0663    1.7663 H   0  0  0  0  0  0  0  0  0  0  0  0
    0.4655    0.1506    2.6378 H   0  0  0  0  0  0  0  0  0  0  0  0
    2.1288   -0.3599    2.6838 H   0  0  0  0  0  0  0  0  0  0  0  0
    1.1944    3.8536   -0.8626 H   0  0  0  0  0  0  0  0  0  0  0  0
    1.7597    3.1191    0.6494 H   0  0  0  0  0  0  0  0  0  0  0  0
    2.7964    3.1197   -0.7847 H   0  0  0  0  0  0  0  0  0  0  0  0
  1  2  1  0
  1  6  1  0
  1 12  1  0
  1 20  1  1
  2  3  1  0
  2 11  1  1
  2 18  1  0
  3  4  1  0
  3  7  1  0
  3 15  1  6
  4  5  1  0
  4 21  1  0
  4 22  1  0
  5  6  1  0
  5 23  1  0
  5 24  1  0
  6 14  1  0
  6 25  1  1
  7  8  2  0
  7 19  1  0
  8  9  1  0
  8 18  1  0
  9 10  1  0
  9 26  1  0
  9 27  1  0
 10 11  1  0
 10 28  1  0
 10 29  1  0
 11 16  1  0
 11 17  1  0
 12 13  1  0
 13 30  1  0
 13 31  1  0
 13 32  1  0
 14 33  1  0
 14 34  1  0
 14 35  1  0
 16 36  1  0
 16 37  1  0
 16 38  1  0
 17 39  1  0
 17 40  1  0
 17 41  1  0
 19 42  1  0
 19 43  1  0
 19 44  1  0
M  END
$$$$
