
 OpenBabel11301904003D

 62 64  0  0  1  0  0  0  0  0999 V2000
    0.0237   -0.1125   -2.4781 C   0  0  2  0  0  0  0  0  0  0  0  0
   -0.5244    0.5575   -3.7996 C   0  0  1  0  0  0  0  0  0  0  0  0
    0.7713    1.0301   -4.6076 C   0  0  2  0  0  0  0  0  0  0  0  0
    1.8046    0.3775   -3.8874 N   0  0  0  0  0  0  0  0  0  0  0  0
    1.4566   -0.2156   -2.7546 C   0  0  0  0  0  0  0  0  0  0  0  0
    2.2899   -0.8313   -2.0522 O   0  0  0  0  0  0  0  0  0  0  0  0
    0.8030    0.5487   -6.0219 C   0  0  0  0  0  0  0  0  0  0  0  0
   -0.0125    1.0222   -6.8484 O   0  0  0  0  0  0  0  0  0  0  0  0
    1.7150   -0.3877   -6.4275 O   0  0  0  0  0  0  0  0  0  0  0  0
    1.8072   -0.9758   -7.7285 C   0  0  0  0  0  0  0  0  0  0  0  0
    2.9891   -1.8674   -7.7912 C   0  0  0  0  0  0  0  0  0  0  0  0
    4.2314   -1.3721   -8.2516 C   0  0  0  0  0  0  0  0  0  0  0  0
    5.3346   -2.2311   -8.3976 C   0  0  0  0  0  0  0  0  0  0  0  0
    5.2098   -3.6001   -8.0910 C   0  0  0  0  0  0  0  0  0  0  0  0
    4.0013   -4.0858   -7.5533 C   0  0  0  0  0  0  0  0  0  0  0  0
    2.8974   -3.2257   -7.4055 C   0  0  0  0  0  0  0  0  0  0  0  0
    6.2551   -4.4526   -8.3207 O   0  0  0  0  0  0  0  0  0  0  0  0
    6.2136   -5.0182   -9.6461 C   0  0  0  0  0  0  0  0  0  0  0  0
    1.0725    2.5867   -4.5699 C   0  0  1  0  0  0  0  0  0  0  0  0
    1.1028    3.0491   -3.2176 O   0  0  0  0  0  0  0  0  0  0  0  0
    2.3684    3.1114   -5.3072 C   0  0  2  0  0  0  0  0  0  0  0  0
    2.3991    4.6647   -5.5114 C   0  0  0  0  0  0  0  0  0  0  0  0
    2.7750    5.4261   -4.2134 C   0  0  0  0  0  0  0  0  0  0  0  0
    4.0286    4.8182   -3.5134 C   0  0  0  0  0  0  0  0  0  0  0  0
    4.3347    3.4308   -3.8325 C   0  0  0  0  0  0  0  0  0  0  0  0
    3.6034    2.6685   -4.6618 C   0  0  0  0  0  0  0  0  0  0  0  0
    2.3702    2.6961   -6.3197 H   0  0  0  0  0  0  0  0  0  0  0  0
   -1.4610   -0.4567   -4.5437 C   0  0  0  0  0  0  0  0  0  0  0  0
   -1.3901    1.6697   -3.5235 O   0  0  0  0  0  0  0  0  0  0  0  0
   -0.3185    0.6206   -1.1420 C   0  0  0  0  0  0  0  0  0  0  0  0
    0.1837   -0.0871    0.1417 C   0  0  0  0  0  0  0  0  0  0  0  0
   -0.3363    0.5684    1.2943 O   0  0  0  0  0  0  0  0  0  0  0  0
   -0.3457   -1.1368   -2.3802 H   0  0  0  0  0  0  0  0  0  0  0  0
    2.7152    0.3531   -4.2066 H   0  0  0  0  0  0  0  0  0  0  0  0
    0.8934   -1.5383   -7.9411 H   0  0  0  0  0  0  0  0  0  0  0  0
    1.8900   -0.1851   -8.4797 H   0  0  0  0  0  0  0  0  0  0  0  0
    4.3372   -0.3848   -8.4985 H   0  0  0  0  0  0  0  0  0  0  0  0
    6.2237   -1.8639   -8.7459 H   0  0  0  0  0  0  0  0  0  0  0  0
    3.9210   -5.0708   -7.2881 H   0  0  0  0  0  0  0  0  0  0  0  0
    2.0224   -3.6020   -7.0311 H   0  0  0  0  0  0  0  0  0  0  0  0
    6.2794   -4.2460  -10.4171 H   0  0  0  0  0  0  0  0  0  0  0  0
    5.3073   -5.6088   -9.8034 H   0  0  0  0  0  0  0  0  0  0  0  0
    7.0703   -5.6808   -9.7611 H   0  0  0  0  0  0  0  0  0  0  0  0
    0.2189    3.0810   -5.0419 H   0  0  0  0  0  0  0  0  0  0  0  0
    0.1807    2.9927   -2.8968 H   0  0  0  0  0  0  0  0  0  0  0  0
    1.4399    5.0267   -5.8882 H   0  0  0  0  0  0  0  0  0  0  0  0
    3.1523    4.9103   -6.2679 H   0  0  0  0  0  0  0  0  0  0  0  0
    1.9234    5.4121   -3.5289 H   0  0  0  0  0  0  0  0  0  0  0  0
    2.9679    6.4756   -4.4553 H   0  0  0  0  0  0  0  0  0  0  0  0
    3.9017    4.8959   -2.4308 H   0  0  0  0  0  0  0  0  0  0  0  0
    4.9039    5.4147   -3.7855 H   0  0  0  0  0  0  0  0  0  0  0  0
    5.1503    3.0314   -3.4245 H   0  0  0  0  0  0  0  0  0  0  0  0
    3.9270    1.7488   -4.8479 H   0  0  0  0  0  0  0  0  0  0  0  0
   -2.2729   -0.7860   -3.8897 H   0  0  0  0  0  0  0  0  0  0  0  0
   -1.9144    0.0017   -5.4243 H   0  0  0  0  0  0  0  0  0  0  0  0
   -0.9042   -1.3408   -4.8589 H   0  0  0  0  0  0  0  0  0  0  0  0
   -2.1446    1.3117   -3.0076 H   0  0  0  0  0  0  0  0  0  0  0  0
   -1.4079    0.6833   -1.0650 H   0  0  0  0  0  0  0  0  0  0  0  0
    0.0763    1.6398   -1.1561 H   0  0  0  0  0  0  0  0  0  0  0  0
    1.2731   -0.0504    0.1993 H   0  0  0  0  0  0  0  0  0  0  0  0
   -0.1391   -1.1322    0.1538 H   0  0  0  0  0  0  0  0  0  0  0  0
    0.0411    0.0709    2.0495 H   0  0  0  0  0  0  0  0  0  0  0  0
  1  2  1  6  0  0  0
  1 33  1  0  0  0  0
  1 30  1  0  0  0  0
  2  3  1  6  0  0  0
  2 29  1  0  0  0  0
  3  7  1  6  0  0  0
  3 19  1  0  0  0  0
  3  4  1  0  0  0  0
  4  5  1  0  0  0  0
  5  1  1  0  0  0  0
  5  6  2  0  0  0  0
  8  7  2  0  0  0  0
  9  7  1  0  0  0  0
 10  9  1  0  0  0  0
 11 10  1  0  0  0  0
 11 16  2  0  0  0  0
 12 11  1  0  0  0  0
 13 12  2  0  0  0  0
 13 14  1  0  0  0  0
 14 15  2  0  0  0  0
 15 16  1  0  0  0  0
 15 39  1  0  0  0  0
 16 40  1  0  0  0  0
 17 14  1  0  0  0  0
 18 17  1  0  0  0  0
 19 44  1  6  0  0  0
 19 20  1  0  0  0  0
 20 45  1  0  0  0  0
 21 27  1  6  0  0  0
 21 26  1  0  0  0  0
 21 19  1  0  0  0  0
 22 21  1  0  0  0  0
 22 23  1  0  0  0  0
 23 48  1  0  0  0  0
 23 24  1  0  0  0  0
 24 50  1  0  0  0  0
 25 24  1  0  0  0  0
 25 52  1  0  0  0  0
 26 25  2  0  0  0  0
 28 54  1  0  0  0  0
 28  2  1  0  0  0  0
 29 57  1  0  0  0  0
 30 58  1  0  0  0  0
 30 31  1  0  0  0  0
 31 61  1  0  0  0  0
 31 60  1  0  0  0  0
 31 32  1  0  0  0  0
 32 62  1  0  0  0  0
 34  4  1  0  0  0  0
 35 10  1  0  0  0  0
 36 10  1  0  0  0  0
 37 12  1  0  0  0  0
 38 13  1  0  0  0  0
 41 18  1  0  0  0  0
 42 18  1  0  0  0  0
 43 18  1  0  0  0  0
 46 22  1  0  0  0  0
 47 22  1  0  0  0  0
 49 23  1  0  0  0  0
 51 24  1  0  0  0  0
 53 26  1  0  0  0  0
 55 28  1  0  0  0  0
 56 28  1  0  0  0  0
 59 30  1  0  0  0  0
M  END
$$$$
