
 OpenBabel11301904003D

 62 64  0  0  1  0  0  0  0  0999 V2000
    0.1196   -0.0692   -2.4073 C   0  0  2  0  0  0  0  0  0  0  0  0
   -0.4525    0.5755   -3.7303 C   0  0  2  0  0  0  0  0  0  0  0  0
    0.8188    0.9280   -4.6431 C   0  0  2  0  0  0  0  0  0  0  0  0
    1.8739    0.3093   -3.9163 N   0  0  0  0  0  0  0  0  0  0  0  0
    1.5370   -0.2334   -2.7481 C   0  0  0  0  0  0  0  0  0  0  0  0
    2.3774   -0.8392   -2.0465 O   0  0  0  0  0  0  0  0  0  0  0  0
    0.7743    0.2048   -5.9620 C   0  0  0  0  0  0  0  0  0  0  0  0
    0.8790   -1.0474   -5.9839 O   0  0  0  0  0  0  0  0  0  0  0  0
    0.6229    0.8409   -7.1602 O   0  0  0  0  0  0  0  0  0  0  0  0
    0.5734    0.2185   -8.4521 C   0  0  0  0  0  0  0  0  0  0  0  0
    0.6281    1.2584   -9.5048 C   0  0  0  0  0  0  0  0  0  0  0  0
   -0.5592    1.7805  -10.0660 C   0  0  0  0  0  0  0  0  0  0  0  0
   -0.5012    2.7415  -11.0907 C   0  0  0  0  0  0  0  0  0  0  0  0
    0.7439    3.1945  -11.5707 C   0  0  0  0  0  0  0  0  0  0  0  0
    1.9317    2.7011  -10.9953 C   0  0  0  0  0  0  0  0  0  0  0  0
    1.8746    1.7421   -9.9686 C   0  0  0  0  0  0  0  0  0  0  0  0
    0.7981    4.1217  -12.5750 O   0  0  0  0  0  0  0  0  0  0  0  0
    0.8494    3.5194  -13.8805 C   0  0  0  0  0  0  0  0  0  0  0  0
    1.1977    2.4727   -4.7415 C   0  0  1  0  0  0  0  0  0  0  0  0
    1.6007    2.9531   -3.4546 O   0  0  0  0  0  0  0  0  0  0  0  0
    2.2480    3.0033   -5.7957 C   0  0  2  0  0  0  0  0  0  0  0  0
    2.4893    4.5565   -5.6768 C   0  0  0  0  0  0  0  0  0  0  0  0
    3.8010    4.9047   -4.9317 C   0  0  0  0  0  0  0  0  0  0  0  0
    4.9880    4.1530   -5.5837 C   0  0  0  0  0  0  0  0  0  0  0  0
    4.7252    2.7380   -5.7729 C   0  0  0  0  0  0  0  0  0  0  0  0
    3.4878    2.2234   -5.8777 C   0  0  0  0  0  0  0  0  0  0  0  0
    1.7873    2.8896   -6.7779 H   0  0  0  0  0  0  0  0  0  0  0  0
   -1.5043    1.7173   -3.5329 C   0  0  0  0  0  0  0  0  0  0  0  0
   -1.2635   -0.4463   -4.3443 O   0  0  0  0  0  0  0  0  0  0  0  0
   -0.0911    0.6979   -1.0587 C   0  0  0  0  0  0  0  0  0  0  0  0
    0.3055   -0.1060    0.2056 C   0  0  0  0  0  0  0  0  0  0  0  0
   -0.0954    0.5993    1.3749 O   0  0  0  0  0  0  0  0  0  0  0  0
   -0.3010   -1.0714   -2.2726 H   0  0  0  0  0  0  0  0  0  0  0  0
    2.7819    0.2689   -4.2565 H   0  0  0  0  0  0  0  0  0  0  0  0
    1.4186   -0.4660   -8.5727 H   0  0  0  0  0  0  0  0  0  0  0  0
   -0.3415   -0.3755   -8.5281 H   0  0  0  0  0  0  0  0  0  0  0  0
   -1.4729    1.4597   -9.7363 H   0  0  0  0  0  0  0  0  0  0  0  0
   -1.3675    3.1057  -11.4916 H   0  0  0  0  0  0  0  0  0  0  0  0
    2.8389    3.0338  -11.3290 H   0  0  0  0  0  0  0  0  0  0  0  0
    2.7494    1.3915   -9.5692 H   0  0  0  0  0  0  0  0  0  0  0  0
   -0.0381    2.9120  -14.0771 H   0  0  0  0  0  0  0  0  0  0  0  0
    1.7453    2.9052  -14.0035 H   0  0  0  0  0  0  0  0  0  0  0  0
    0.8829    4.3206  -14.6178 H   0  0  0  0  0  0  0  0  0  0  0  0
    0.2803    3.0054   -4.9929 H   0  0  0  0  0  0  0  0  0  0  0  0
    0.8660    2.7395   -2.8463 H   0  0  0  0  0  0  0  0  0  0  0  0
    1.6529    5.0551   -5.1787 H   0  0  0  0  0  0  0  0  0  0  0  0
    2.5573    4.9904   -6.6800 H   0  0  0  0  0  0  0  0  0  0  0  0
    3.7165    4.6216   -3.8793 H   0  0  0  0  0  0  0  0  0  0  0  0
    3.9799    5.9817   -4.9806 H   0  0  0  0  0  0  0  0  0  0  0  0
    5.8797    4.2838   -4.9652 H   0  0  0  0  0  0  0  0  0  0  0  0
    5.1946    4.5886   -6.5654 H   0  0  0  0  0  0  0  0  0  0  0  0
    5.5064    2.1271   -5.8581 H   0  0  0  0  0  0  0  0  0  0  0  0
    3.4173    1.2483   -6.0530 H   0  0  0  0  0  0  0  0  0  0  0  0
   -1.0904    2.5608   -2.9828 H   0  0  0  0  0  0  0  0  0  0  0  0
   -1.8640    2.0776   -4.4988 H   0  0  0  0  0  0  0  0  0  0  0  0
   -2.3718    1.3557   -2.9766 H   0  0  0  0  0  0  0  0  0  0  0  0
   -1.9711   -0.6477   -3.6945 H   0  0  0  0  0  0  0  0  0  0  0  0
   -1.1517    0.9319   -0.9430 H   0  0  0  0  0  0  0  0  0  0  0  0
    0.4612    1.6405   -1.0709 H   0  0  0  0  0  0  0  0  0  0  0  0
    1.3843   -0.2580    0.2514 H   0  0  0  0  0  0  0  0  0  0  0  0
   -0.1891   -1.0804    0.2076 H   0  0  0  0  0  0  0  0  0  0  0  0
    0.1557    0.0144    2.1210 H   0  0  0  0  0  0  0  0  0  0  0  0
  1  2  1  6  0  0  0
  1 33  1  0  0  0  0
  1 30  1  0  0  0  0
  2  3  1  6  0  0  0
  2 28  1  0  0  0  0
  3  7  1  6  0  0  0
  3  4  1  0  0  0  0
  4  5  1  0  0  0  0
  5  1  1  0  0  0  0
  5  6  2  0  0  0  0
  8  7  2  0  0  0  0
  9  7  1  0  0  0  0
 10  9  1  0  0  0  0
 11 10  1  0  0  0  0
 12 37  1  0  0  0  0
 12 11  2  0  0  0  0
 13 12  1  0  0  0  0
 14 13  2  0  0  0  0
 14 15  1  0  0  0  0
 15 16  2  0  0  0  0
 16 40  1  0  0  0  0
 16 11  1  0  0  0  0
 17 14  1  0  0  0  0
 18 17  1  0  0  0  0
 19 44  1  6  0  0  0
 19  3  1  0  0  0  0
 19 20  1  0  0  0  0
 20 45  1  0  0  0  0
 21 27  1  6  0  0  0
 21 22  1  0  0  0  0
 21 19  1  0  0  0  0
 22 46  1  0  0  0  0
 22 23  1  0  0  0  0
 23 48  1  0  0  0  0
 24 50  1  0  0  0  0
 24 23  1  0  0  0  0
 25 24  1  0  0  0  0
 26 21  1  0  0  0  0
 26 25  2  0  0  0  0
 28 54  1  0  0  0  0
 28 56  1  0  0  0  0
 29  2  1  0  0  0  0
 29 57  1  0  0  0  0
 30 58  1  0  0  0  0
 30 31  1  0  0  0  0
 31 61  1  0  0  0  0
 31 60  1  0  0  0  0
 31 32  1  0  0  0  0
 32 62  1  0  0  0  0
 34  4  1  0  0  0  0
 35 10  1  0  0  0  0
 36 10  1  0  0  0  0
 38 13  1  0  0  0  0
 39 15  1  0  0  0  0
 41 18  1  0  0  0  0
 42 18  1  0  0  0  0
 43 18  1  0  0  0  0
 47 22  1  0  0  0  0
 49 23  1  0  0  0  0
 51 24  1  0  0  0  0
 52 25  1  0  0  0  0
 53 26  1  0  0  0  0
 55 28  1  0  0  0  0
 59 30  1  0  0  0  0
M  END
$$$$
