
 OpenBabel11301904003D

 62 64  0  0  1  0  0  0  0  0999 V2000
    0.1352   -0.0135    2.4529 C   0  0  1  0  0  0  0  0  0  0  0  0
   -0.5228    0.6772    3.7093 C   0  0  2  0  0  0  0  0  0  0  0  0
    0.6850    1.1853    4.6253 C   0  0  1  0  0  0  0  0  0  0  0  0
    1.8156    0.7272    3.8975 N   0  0  0  0  0  0  0  0  0  0  0  0
    1.5631    0.1025    2.7524 C   0  0  0  0  0  0  0  0  0  0  0  0
    2.4849   -0.3798    2.0568 O   0  0  0  0  0  0  0  0  0  0  0  0
    0.7137    0.5813    5.9951 C   0  0  0  0  0  0  0  0  0  0  0  0
   -0.1708    0.9039    6.8241 O   0  0  0  0  0  0  0  0  0  0  0  0
    1.7122   -0.2772    6.3812 O   0  0  0  0  0  0  0  0  0  0  0  0
    1.8667   -0.8229    7.6974 C   0  0  0  0  0  0  0  0  0  0  0  0
    3.0976   -1.6446    7.8004 C   0  0  0  0  0  0  0  0  0  0  0  0
    3.0668   -3.0236    7.4886 C   0  0  0  0  0  0  0  0  0  0  0  0
    4.1992   -3.8314    7.6962 C   0  0  0  0  0  0  0  0  0  0  0  0
    5.3843   -3.2724    8.2154 C   0  0  0  0  0  0  0  0  0  0  0  0
    5.4493   -1.8846    8.4541 C   0  0  0  0  0  0  0  0  0  0  0  0
    4.3148   -1.0783    8.2480 C   0  0  0  0  0  0  0  0  0  0  0  0
    6.4641   -4.0713    8.4797 O   0  0  0  0  0  0  0  0  0  0  0  0
    6.4532   -4.5805    9.8286 C   0  0  0  0  0  0  0  0  0  0  0  0
    0.8280    2.7590    4.7331 C   0  0  1  0  0  0  0  0  0  0  0  0
   -0.2802    3.3007    5.4579 O   0  0  0  0  0  0  0  0  0  0  0  0
    2.1758    3.3512    5.3000 C   0  0  2  0  0  0  0  0  0  0  0  0
    2.2332    4.9119    5.2370 C   0  0  0  0  0  0  0  0  0  0  0  0
    1.4485    5.5971    6.3938 C   0  0  0  0  0  0  0  0  0  0  0  0
    1.6102    4.8924    7.7789 C   0  0  0  0  0  0  0  0  0  0  0  0
    2.2370    3.5810    7.7650 C   0  0  0  0  0  0  0  0  0  0  0  0
    2.5234    2.8986    6.6459 C   0  0  0  0  0  0  0  0  0  0  0  0
    2.9742    3.0037    4.6376 H   0  0  0  0  0  0  0  0  0  0  0  0
   -1.5402   -0.3032    4.3794 C   0  0  0  0  0  0  0  0  0  0  0  0
   -1.3506    1.7769    3.3020 O   0  0  0  0  0  0  0  0  0  0  0  0
   -0.2824    0.5759    1.0640 C   0  0  0  0  0  0  0  0  0  0  0  0
    0.2462   -0.1945   -0.1696 C   0  0  0  0  0  0  0  0  0  0  0  0
   -0.2926    0.3624   -1.3633 O   0  0  0  0  0  0  0  0  0  0  0  0
   -0.0909   -1.0846    2.4377 H   0  0  0  0  0  0  0  0  0  0  0  0
    2.7216    0.8629    4.2182 H   0  0  0  0  0  0  0  0  0  0  0  0
    1.9057   -0.0055    8.4238 H   0  0  0  0  0  0  0  0  0  0  0  0
    0.9894   -1.4269    7.9402 H   0  0  0  0  0  0  0  0  0  0  0  0
    2.2130   -3.4530    7.1252 H   0  0  0  0  0  0  0  0  0  0  0  0
    4.1556   -4.8303    7.4845 H   0  0  0  0  0  0  0  0  0  0  0  0
    6.3181   -1.4652    8.7933 H   0  0  0  0  0  0  0  0  0  0  0  0
    4.3795   -0.0763    8.4426 H   0  0  0  0  0  0  0  0  0  0  0  0
    5.5686   -5.1951   10.0169 H   0  0  0  0  0  0  0  0  0  0  0  0
    6.4943   -3.7698   10.5611 H   0  0  0  0  0  0  0  0  0  0  0  0
    7.3339   -5.2068    9.9707 H   0  0  0  0  0  0  0  0  0  0  0  0
    0.7424    3.1554    3.7159 H   0  0  0  0  0  0  0  0  0  0  0  0
   -1.0768    3.0919    4.9303 H   0  0  0  0  0  0  0  0  0  0  0  0
    1.8527    5.2711    4.2761 H   0  0  0  0  0  0  0  0  0  0  0  0
    3.2817    5.2230    5.2999 H   0  0  0  0  0  0  0  0  0  0  0  0
    0.3882    5.6387    6.1338 H   0  0  0  0  0  0  0  0  0  0  0  0
    1.7841    6.6350    6.4745 H   0  0  0  0  0  0  0  0  0  0  0  0
    0.6275    4.7919    8.2488 H   0  0  0  0  0  0  0  0  0  0  0  0
    2.2157    5.5342    8.4241 H   0  0  0  0  0  0  0  0  0  0  0  0
    2.4898    3.1780    8.6407 H   0  0  0  0  0  0  0  0  0  0  0  0
    3.0016    2.0339    6.7441 H   0  0  0  0  0  0  0  0  0  0  0  0
   -1.0250   -1.1827    4.7760 H   0  0  0  0  0  0  0  0  0  0  0  0
   -2.0814    0.1912    5.1898 H   0  0  0  0  0  0  0  0  0  0  0  0
   -2.2776   -0.6422    3.6457 H   0  0  0  0  0  0  0  0  0  0  0  0
   -2.0578    1.3931    2.7463 H   0  0  0  0  0  0  0  0  0  0  0  0
    0.0319    1.6226    0.9957 H   0  0  0  0  0  0  0  0  0  0  0  0
   -1.3745    0.5484    0.9987 H   0  0  0  0  0  0  0  0  0  0  0  0
   -0.0520   -1.2425   -0.1109 H   0  0  0  0  0  0  0  0  0  0  0  0
    1.3321   -0.1319   -0.2251 H   0  0  0  0  0  0  0  0  0  0  0  0
    0.0854   -0.1798   -2.0852 H   0  0  0  0  0  0  0  0  0  0  0  0
  1  5  1  0  0  0  0
  1  2  1  1  0  0  0
  2 28  1  0  0  0  0
  2  3  1  1  0  0  0
  3 19  1  0  0  0  0
  3  7  1  1  0  0  0
  4 34  1  0  0  0  0
  4  3  1  0  0  0  0
  5  4  1  0  0  0  0
  6  5  2  0  0  0  0
  7  9  1  0  0  0  0
  7  8  2  0  0  0  0
  9 10  1  0  0  0  0
 10 11  1  0  0  0  0
 10 36  1  0  0  0  0
 10 35  1  0  0  0  0
 11 16  2  0  0  0  0
 12 13  2  0  0  0  0
 12 11  1  0  0  0  0
 13 14  1  0  0  0  0
 14 15  2  0  0  0  0
 14 17  1  0  0  0  0
 15 39  1  0  0  0  0
 16 40  1  0  0  0  0
 16 15  1  0  0  0  0
 17 18  1  0  0  0  0
 18 43  1  0  0  0  0
 18 41  1  0  0  0  0
 18 42  1  0  0  0  0
 19 44  1  6  0  0  0
 19 21  1  0  0  0  0
 19 20  1  0  0  0  0
 21 27  1  6  0  0  0
 21 26  1  0  0  0  0
 22 47  1  0  0  0  0
 22 21  1  0  0  0  0
 22 23  1  0  0  0  0
 23 49  1  0  0  0  0
 23 24  1  0  0  0  0
 24 50  1  0  0  0  0
 24 51  1  0  0  0  0
 25 24  1  0  0  0  0
 25 52  1  0  0  0  0
 26 53  1  0  0  0  0
 26 25  2  0  0  0  0
 28 54  1  0  0  0  0
 28 55  1  0  0  0  0
 29  2  1  0  0  0  0
 30  1  1  0  0  0  0
 31 60  1  0  0  0  0
 31 30  1  0  0  0  0
 32 31  1  0  0  0  0
 33  1  1  0  0  0  0
 37 12  1  0  0  0  0
 38 13  1  0  0  0  0
 45 20  1  0  0  0  0
 46 22  1  0  0  0  0
 48 23  1  0  0  0  0
 56 28  1  0  0  0  0
 57 29  1  0  0  0  0
 58 30  1  0  0  0  0
 59 30  1  0  0  0  0
 61 31  1  0  0  0  0
 62 32  1  0  0  0  0
M  END
$$$$
