
 OpenBabel11301904003D

 62 64  0  0  1  0  0  0  0  0999 V2000
   -0.0087    0.0027    2.3644 C   0  0  1  0  0  0  0  0  0  0  0  0
   -0.4814    0.6872    3.7069 C   0  0  1  0  0  0  0  0  0  0  0  0
    0.8547    1.1574    4.4599 C   0  0  1  0  0  0  0  0  0  0  0  0
    1.8588    0.5583    3.6551 N   0  0  0  0  0  0  0  0  0  0  0  0
    1.4423   -0.0575    2.5554 C   0  0  0  0  0  0  0  0  0  0  0  0
    2.2424   -0.6622    1.8059 O   0  0  0  0  0  0  0  0  0  0  0  0
    0.9877    0.5139    5.8106 C   0  0  0  0  0  0  0  0  0  0  0  0
    1.1387   -0.7333    5.8844 O   0  0  0  0  0  0  0  0  0  0  0  0
    0.9285    1.2221    6.9775 O   0  0  0  0  0  0  0  0  0  0  0  0
    1.0814    0.6613    8.2882 C   0  0  0  0  0  0  0  0  0  0  0  0
    1.1432    1.7370    9.3023 C   0  0  0  0  0  0  0  0  0  0  0  0
    2.3885    2.2420    9.7476 C   0  0  0  0  0  0  0  0  0  0  0  0
    2.4433    3.2407   10.7371 C   0  0  0  0  0  0  0  0  0  0  0  0
    1.2556    3.7411   11.3071 C   0  0  0  0  0  0  0  0  0  0  0  0
    0.0116    3.2747   10.8369 C   0  0  0  0  0  0  0  0  0  0  0  0
   -0.0448    2.2787    9.8447 C   0  0  0  0  0  0  0  0  0  0  0  0
    1.3093    4.6910   12.2927 O   0  0  0  0  0  0  0  0  0  0  0  0
    1.4020    4.1252   13.6131 C   0  0  0  0  0  0  0  0  0  0  0  0
    1.1214    2.7219    4.4544 C   0  0  2  0  0  0  0  0  0  0  0  0
    1.0856    3.1878    3.1006 O   0  0  0  0  0  0  0  0  0  0  0  0
    2.3848    3.3477    5.1742 C   0  0  2  0  0  0  0  0  0  0  0  0
    3.8118    2.9587    4.6651 C   0  0  0  0  0  0  0  0  0  0  0  0
    4.1537    3.6420    3.3168 C   0  0  0  0  0  0  0  0  0  0  0  0
    3.9017    5.1796    3.3760 C   0  0  0  0  0  0  0  0  0  0  0  0
    2.9150    5.6292    4.3502 C   0  0  0  0  0  0  0  0  0  0  0  0
    2.2493    4.8076    5.1810 C   0  0  0  0  0  0  0  0  0  0  0  0
    2.3631    3.0470    6.2226 H   0  0  0  0  0  0  0  0  0  0  0  0
   -1.6142    1.7581    3.5617 C   0  0  0  0  0  0  0  0  0  0  0  0
   -1.1612   -0.3421    4.4511 O   0  0  0  0  0  0  0  0  0  0  0  0
   -0.4227    0.6671    1.0080 C   0  0  0  0  0  0  0  0  0  0  0  0
    0.0103   -0.1294   -0.2519 C   0  0  0  0  0  0  0  0  0  0  0  0
   -0.6221    0.3827   -1.4195 O   0  0  0  0  0  0  0  0  0  0  0  0
   -0.3664   -1.0323    2.3278 H   0  0  0  0  0  0  0  0  0  0  0  0
    2.7919    0.5587    3.9046 H   0  0  0  0  0  0  0  0  0  0  0  0
    0.2455   -0.0141    8.4948 H   0  0  0  0  0  0  0  0  0  0  0  0
    1.9991    0.0668    8.3170 H   0  0  0  0  0  0  0  0  0  0  0  0
    3.2645    1.8844    9.3572 H   0  0  0  0  0  0  0  0  0  0  0  0
    3.3505    3.5984   11.0487 H   0  0  0  0  0  0  0  0  0  0  0  0
   -0.8569    3.6545   11.2217 H   0  0  0  0  0  0  0  0  0  0  0  0
   -0.9589    1.9461    9.5268 H   0  0  0  0  0  0  0  0  0  0  0  0
    2.3023    3.5170   13.7289 H   0  0  0  0  0  0  0  0  0  0  0  0
    0.5227    3.5232   13.8533 H   0  0  0  0  0  0  0  0  0  0  0  0
    1.4559    4.9432   14.3302 H   0  0  0  0  0  0  0  0  0  0  0  0
    0.2523    3.1644    4.9494 H   0  0  0  0  0  0  0  0  0  0  0  0
    0.9684    4.1577    3.1575 H   0  0  0  0  0  0  0  0  0  0  0  0
    3.9363    1.8828    4.5923 H   0  0  0  0  0  0  0  0  0  0  0  0
    4.5466    3.2989    5.4037 H   0  0  0  0  0  0  0  0  0  0  0  0
    3.5511    3.1958    2.5242 H   0  0  0  0  0  0  0  0  0  0  0  0
    5.2014    3.4475    3.0647 H   0  0  0  0  0  0  0  0  0  0  0  0
    3.5978    5.5288    2.3850 H   0  0  0  0  0  0  0  0  0  0  0  0
    4.8422    5.6753    3.6277 H   0  0  0  0  0  0  0  0  0  0  0  0
    2.7429    6.6066    4.4163 H   0  0  0  0  0  0  0  0  0  0  0  0
    1.6085    5.2134    5.8268 H   0  0  0  0  0  0  0  0  0  0  0  0
   -2.5134    1.3204    3.1207 H   0  0  0  0  0  0  0  0  0  0  0  0
   -1.8876    2.1549    4.5413 H   0  0  0  0  0  0  0  0  0  0  0  0
   -1.3189    2.5894    2.9256 H   0  0  0  0  0  0  0  0  0  0  0  0
   -1.9229   -0.6154    3.8965 H   0  0  0  0  0  0  0  0  0  0  0  0
   -0.0158    1.6811    0.9415 H   0  0  0  0  0  0  0  0  0  0  0  0
   -1.5138    0.7373    0.9757 H   0  0  0  0  0  0  0  0  0  0  0  0
   -0.2639   -1.1817   -0.1456 H   0  0  0  0  0  0  0  0  0  0  0  0
    1.0895   -0.0558   -0.3952 H   0  0  0  0  0  0  0  0  0  0  0  0
   -0.2917   -0.1854   -2.1462 H   0  0  0  0  0  0  0  0  0  0  0  0
  1  5  1  0  0  0  0
  1  2  1  1  0  0  0
  2 29  1  0  0  0  0
  2  3  1  1  0  0  0
  3  7  1  1  0  0  0
  4 34  1  0  0  0  0
  4  3  1  0  0  0  0
  5  4  1  0  0  0  0
  6  5  2  0  0  0  0
  7  8  2  0  0  0  0
  7  9  1  0  0  0  0
  9 10  1  0  0  0  0
 10 36  1  0  0  0  0
 10 35  1  0  0  0  0
 10 11  1  0  0  0  0
 11 12  2  0  0  0  0
 11 16  1  0  0  0  0
 12 13  1  0  0  0  0
 13 38  1  0  0  0  0
 13 14  2  0  0  0  0
 14 17  1  0  0  0  0
 15 39  1  0  0  0  0
 15 14  1  0  0  0  0
 16 15  2  0  0  0  0
 17 18  1  0  0  0  0
 18 41  1  0  0  0  0
 18 42  1  0  0  0  0
 18 43  1  0  0  0  0
 19  3  1  0  0  0  0
 19 44  1  1  0  0  0
 19 21  1  0  0  0  0
 20 45  1  0  0  0  0
 20 19  1  0  0  0  0
 21 26  1  0  0  0  0
 21 27  1  1  0  0  0
 22 21  1  0  0  0  0
 22 47  1  0  0  0  0
 23 24  1  0  0  0  0
 23 22  1  0  0  0  0
 24 51  1  0  0  0  0
 24 25  1  0  0  0  0
 25 52  1  0  0  0  0
 25 26  2  0  0  0  0
 26 53  1  0  0  0  0
 28  2  1  0  0  0  0
 28 55  1  0  0  0  0
 30  1  1  0  0  0  0
 31 60  1  0  0  0  0
 31 30  1  0  0  0  0
 32 31  1  0  0  0  0
 33  1  1  0  0  0  0
 37 12  1  0  0  0  0
 40 16  1  0  0  0  0
 46 22  1  0  0  0  0
 48 23  1  0  0  0  0
 49 23  1  0  0  0  0
 50 24  1  0  0  0  0
 54 28  1  0  0  0  0
 56 28  1  0  0  0  0
 57 29  1  0  0  0  0
 58 30  1  0  0  0  0
 59 30  1  0  0  0  0
 61 31  1  0  0  0  0
 62 32  1  0  0  0  0
M  END
$$$$
