
 OpenBabel11301904003D

 62 64  0  0  1  0  0  0  0  0999 V2000
    0.2207   -0.0080    2.3547 C   0  0  1  0  0  0  0  0  0  0  0  0
   -0.3649    0.6525    3.6631 C   0  0  2  0  0  0  0  0  0  0  0  0
    0.8880    1.3023    4.4240 C   0  0  2  0  0  0  0  0  0  0  0  0
    1.9760    0.9277    3.5871 N   0  0  0  0  0  0  0  0  0  0  0  0
    1.6578    0.2434    2.4924 C   0  0  0  0  0  0  0  0  0  0  0  0
    2.5391   -0.1644    1.7022 O   0  0  0  0  0  0  0  0  0  0  0  0
    0.8516    2.8018    4.3299 C   0  0  0  0  0  0  0  0  0  0  0  0
    0.9704    3.3612    3.2106 O   0  0  0  0  0  0  0  0  0  0  0  0
    0.6455    3.5909    5.4226 O   0  0  0  0  0  0  0  0  0  0  0  0
    0.6681    5.0217    5.4488 C   0  0  0  0  0  0  0  0  0  0  0  0
    0.6853    5.4903    6.8550 C   0  0  0  0  0  0  0  0  0  0  0  0
   -0.5188    5.7327    7.5537 C   0  0  0  0  0  0  0  0  0  0  0  0
   -0.4954    6.2298    8.8699 C   0  0  0  0  0  0  0  0  0  0  0  0
    0.7310    6.4917    9.5130 C   0  0  0  0  0  0  0  0  0  0  0  0
    1.9350    6.2056    8.8391 C   0  0  0  0  0  0  0  0  0  0  0  0
    1.9127    5.7077    7.5235 C   0  0  0  0  0  0  0  0  0  0  0  0
    0.7514    6.9972   10.7862 O   0  0  0  0  0  0  0  0  0  0  0  0
    0.7818    8.4371   10.8203 C   0  0  0  0  0  0  0  0  0  0  0  0
    1.2171    0.7117    5.8667 C   0  0  1  0  0  0  0  0  0  0  0  0
    1.7553   -0.6109    5.7376 O   0  0  0  0  0  0  0  0  0  0  0  0
    2.1566    1.4831    6.8740 C   0  0  2  0  0  0  0  0  0  0  0  0
    2.4335    0.6680    8.1916 C   0  0  0  0  0  0  0  0  0  0  0  0
    3.7654   -0.1246    8.1281 C   0  0  0  0  0  0  0  0  0  0  0  0
    4.9364    0.8259    7.7729 C   0  0  0  0  0  0  0  0  0  0  0  0
    4.6310    1.7270    6.6774 C   0  0  0  0  0  0  0  0  0  0  0  0
    3.3830    2.0189    6.2728 C   0  0  0  0  0  0  0  0  0  0  0  0
    1.5961    2.3516    7.2246 H   0  0  0  0  0  0  0  0  0  0  0  0
   -1.2574   -0.3774    4.4324 C   0  0  0  0  0  0  0  0  0  0  0  0
   -1.3348    1.6730    3.3524 O   0  0  0  0  0  0  0  0  0  0  0  0
   -0.3917    0.5290    1.0182 C   0  0  0  0  0  0  0  0  0  0  0  0
    0.0691   -0.1764   -0.2784 C   0  0  0  0  0  0  0  0  0  0  0  0
   -0.6659    0.3405   -1.3845 O   0  0  0  0  0  0  0  0  0  0  0  0
    0.0892   -1.0961    2.3733 H   0  0  0  0  0  0  0  0  0  0  0  0
    2.8935    1.1589    3.7997 H   0  0  0  0  0  0  0  0  0  0  0  0
    1.5597    5.3855    4.9295 H   0  0  0  0  0  0  0  0  0  0  0  0
   -0.2001    5.4144    4.9139 H   0  0  0  0  0  0  0  0  0  0  0  0
   -1.4211    5.5553    7.1056 H   0  0  0  0  0  0  0  0  0  0  0  0
   -1.3745    6.4071    9.3597 H   0  0  0  0  0  0  0  0  0  0  0  0
    2.8305    6.3655    9.3041 H   0  0  0  0  0  0  0  0  0  0  0  0
    2.8005    5.5116    7.0542 H   0  0  0  0  0  0  0  0  0  0  0  0
   -0.0973    8.8705   10.3360 H   0  0  0  0  0  0  0  0  0  0  0  0
    1.6869    8.8315   10.3508 H   0  0  0  0  0  0  0  0  0  0  0  0
    0.7798    8.7516   11.8639 H   0  0  0  0  0  0  0  0  0  0  0  0
    0.2689    0.6166    6.3992 H   0  0  0  0  0  0  0  0  0  0  0  0
    1.1423   -1.1050    5.1644 H   0  0  0  0  0  0  0  0  0  0  0  0
    1.6122   -0.0215    8.4065 H   0  0  0  0  0  0  0  0  0  0  0  0
    2.4907    1.3576    9.0414 H   0  0  0  0  0  0  0  0  0  0  0  0
    3.6978   -0.9128    7.3739 H   0  0  0  0  0  0  0  0  0  0  0  0
    3.9576   -0.6048    9.0899 H   0  0  0  0  0  0  0  0  0  0  0  0
    5.8093    0.2222    7.5130 H   0  0  0  0  0  0  0  0  0  0  0  0
    5.1944    1.4293    8.6473 H   0  0  0  0  0  0  0  0  0  0  0  0
    5.3919    2.1654    6.2124 H   0  0  0  0  0  0  0  0  0  0  0  0
    3.3007    2.6644    5.5257 H   0  0  0  0  0  0  0  0  0  0  0  0
   -0.6952   -1.2477    4.7627 H   0  0  0  0  0  0  0  0  0  0  0  0
   -1.7324    0.0828    5.3002 H   0  0  0  0  0  0  0  0  0  0  0  0
   -2.0571   -0.7392    3.7799 H   0  0  0  0  0  0  0  0  0  0  0  0
   -2.0556    1.2275    2.8606 H   0  0  0  0  0  0  0  0  0  0  0  0
   -0.1863    1.5998    0.9280 H   0  0  0  0  0  0  0  0  0  0  0  0
   -1.4761    0.4002    1.0703 H   0  0  0  0  0  0  0  0  0  0  0  0
   -0.1124   -1.2513   -0.2108 H   0  0  0  0  0  0  0  0  0  0  0  0
    1.1298   -0.0016   -0.4615 H   0  0  0  0  0  0  0  0  0  0  0  0
   -0.3193   -0.1302   -2.1710 H   0  0  0  0  0  0  0  0  0  0  0  0
  1 33  1  0  0  0  0
  1  5  1  0  0  0  0
  1  2  1  1  0  0  0
  2  3  1  1  0  0  0
  2 28  1  0  0  0  0
  3  7  1  1  0  0  0
  3 19  1  0  0  0  0
  4 34  1  0  0  0  0
  4  3  1  0  0  0  0
  5  4  1  0  0  0  0
  6  5  2  0  0  0  0
  7  9  1  0  0  0  0
  8  7  2  0  0  0  0
  9 10  1  0  0  0  0
 10 11  1  0  0  0  0
 11 16  2  0  0  0  0
 11 12  1  0  0  0  0
 12 13  2  0  0  0  0
 13 38  1  0  0  0  0
 13 14  1  0  0  0  0
 14 17  1  0  0  0  0
 15 39  1  0  0  0  0
 15 14  2  0  0  0  0
 16 15  1  0  0  0  0
 17 18  1  0  0  0  0
 18 43  1  0  0  0  0
 19 44  1  1  0  0  0
 19 21  1  0  0  0  0
 20 19  1  0  0  0  0
 21 27  1  1  0  0  0
 21 22  1  0  0  0  0
 22 46  1  0  0  0  0
 22 47  1  0  0  0  0
 23 22  1  0  0  0  0
 23 49  1  0  0  0  0
 24 23  1  0  0  0  0
 24 51  1  0  0  0  0
 25 24  1  0  0  0  0
 26 25  2  0  0  0  0
 26 21  1  0  0  0  0
 28 54  1  0  0  0  0
 28 55  1  0  0  0  0
 29  2  1  0  0  0  0
 30 59  1  0  0  0  0
 30  1  1  0  0  0  0
 31 60  1  0  0  0  0
 31 30  1  0  0  0  0
 32 31  1  0  0  0  0
 35 10  1  0  0  0  0
 36 10  1  0  0  0  0
 37 12  1  0  0  0  0
 40 16  1  0  0  0  0
 41 18  1  0  0  0  0
 42 18  1  0  0  0  0
 45 20  1  0  0  0  0
 48 23  1  0  0  0  0
 50 24  1  0  0  0  0
 52 25  1  0  0  0  0
 53 26  1  0  0  0  0
 56 28  1  0  0  0  0
 57 29  1  0  0  0  0
 58 30  1  0  0  0  0
 61 31  1  0  0  0  0
 62 32  1  0  0  0  0
M  END
$$$$
