
 OpenBabel11301903573D

 58 61  0  0  1  0  0  0  0  0999 V2000
   -0.8126    1.3138    0.1760 C   0  0  2  0  0  0  0  0  0  0  0  0
   -2.3140    0.8971    0.1183 C   0  0  1  0  0  0  0  0  0  0  0  0
   -2.3339   -0.6984    0.0251 C   0  0  1  0  0  0  0  0  0  0  0  0
   -0.9435   -1.0024   -0.0043 N   0  0  0  0  0  0  0  0  0  0  0  0
   -0.1147    0.0358    0.0671 C   0  0  0  0  0  0  0  0  0  0  0  0
   -2.7662    1.5126   -1.0942 O   0  0  0  0  0  0  0  0  0  0  0  0
   -1.8361    2.2525   -1.7167 C   0  0  0  0  0  0  0  0  0  0  0  0
   -0.5694    2.2939   -0.9994 C   0  0  0  0  0  0  0  0  0  0  0  0
    1.1299   -0.0882    0.0564 O   0  0  0  0  0  0  0  0  0  0  0  0
   -2.9526   -1.1949   -1.2460 C   0  0  0  0  0  0  0  0  0  0  0  0
   -4.1691   -0.9718   -1.4572 O   0  0  0  0  0  0  0  0  0  0  0  0
   -2.2217   -1.9144   -2.1635 O   0  0  0  0  0  0  0  0  0  0  0  0
   -2.7412   -2.5266   -3.3511 C   0  0  0  0  0  0  0  0  0  0  0  0
   -1.6891   -3.2699   -4.0912 C   0  0  0  0  0  0  0  0  0  0  0  0
   -0.9125   -2.6279   -5.0849 C   0  0  0  0  0  0  0  0  0  0  0  0
   -0.0008   -3.3621   -5.8682 C   0  0  0  0  0  0  0  0  0  0  0  0
    0.1554   -4.7479   -5.6658 C   0  0  0  0  0  0  0  0  0  0  0  0
   -0.5595   -5.3801   -4.6294 C   0  0  0  0  0  0  0  0  0  0  0  0
   -1.4732   -4.6475   -3.8476 C   0  0  0  0  0  0  0  0  0  0  0  0
    1.0088   -5.4701   -6.4568 O   0  0  0  0  0  0  0  0  0  0  0  0
    0.3729   -6.0007   -7.6376 C   0  0  0  0  0  0  0  0  0  0  0  0
   -2.9451   -1.4725    1.2594 C   0  0  1  0  0  0  0  0  0  0  0  0
   -2.6891   -3.0260    1.3777 C   0  0  2  0  0  0  0  0  0  0  0  0
   -4.3477   -1.2164    1.3478 O   0  0  0  0  0  0  0  0  0  0  0  0
   -3.2206   -3.6290    2.7193 C   0  0  0  0  0  0  0  0  0  0  0  0
   -4.7577   -3.8687    2.7069 C   0  0  0  0  0  0  0  0  0  0  0  0
   -5.2967   -4.4633    1.3693 C   0  0  0  0  0  0  0  0  0  0  0  0
   -4.3815   -4.4319    0.2401 C   0  0  0  0  0  0  0  0  0  0  0  0
   -3.1902   -3.8154    0.2547 C   0  0  0  0  0  0  0  0  0  0  0  0
   -1.6041   -3.1686    1.4027 H   0  0  0  0  0  0  0  0  0  0  0  0
   -3.1270    1.6022    1.2490 C   0  0  0  0  0  0  0  0  0  0  0  0
   -0.5278    1.7763    1.1262 H   0  0  0  0  0  0  0  0  0  0  0  0
   -2.0642    2.8520   -2.7892 O   0  0  0  0  0  0  0  0  0  0  0  0
   -0.6161   -1.9131   -0.0733 H   0  0  0  0  0  0  0  0  0  0  0  0
   -0.3913    3.3109   -0.6390 H   0  0  0  0  0  0  0  0  0  0  0  0
    0.2573    1.9833   -1.6424 H   0  0  0  0  0  0  0  0  0  0  0  0
   -3.5458   -3.2114   -3.0677 H   0  0  0  0  0  0  0  0  0  0  0  0
   -3.1817   -1.7588   -3.9908 H   0  0  0  0  0  0  0  0  0  0  0  0
   -1.0189   -1.6239   -5.2560 H   0  0  0  0  0  0  0  0  0  0  0  0
    0.5389   -2.8889   -6.5967 H   0  0  0  0  0  0  0  0  0  0  0  0
   -0.4264   -6.3782   -4.4521 H   0  0  0  0  0  0  0  0  0  0  0  0
   -1.9926   -5.1304   -3.1087 H   0  0  0  0  0  0  0  0  0  0  0  0
   -0.4224   -6.7070   -7.3846 H   0  0  0  0  0  0  0  0  0  0  0  0
    1.1226   -6.5373   -8.2201 H   0  0  0  0  0  0  0  0  0  0  0  0
   -0.0348   -5.2070   -8.2695 H   0  0  0  0  0  0  0  0  0  0  0  0
   -2.4884   -1.0403    2.1531 H   0  0  0  0  0  0  0  0  0  0  0  0
   -4.4334   -0.3988    1.8793 H   0  0  0  0  0  0  0  0  0  0  0  0
   -2.9617   -2.9782    3.5577 H   0  0  0  0  0  0  0  0  0  0  0  0
   -2.7203   -4.5854    2.8986 H   0  0  0  0  0  0  0  0  0  0  0  0
   -5.2659   -2.9239    2.9086 H   0  0  0  0  0  0  0  0  0  0  0  0
   -5.0167   -4.5376    3.5322 H   0  0  0  0  0  0  0  0  0  0  0  0
   -6.2033   -3.9271    1.0791 H   0  0  0  0  0  0  0  0  0  0  0  0
   -5.5795   -5.5055    1.5383 H   0  0  0  0  0  0  0  0  0  0  0  0
   -4.6511   -4.9168   -0.5865 H   0  0  0  0  0  0  0  0  0  0  0  0
   -2.6156   -3.9031   -0.5512 H   0  0  0  0  0  0  0  0  0  0  0  0
   -4.1963    1.4303    1.1216 H   0  0  0  0  0  0  0  0  0  0  0  0
   -2.8209    1.2502    2.2322 H   0  0  0  0  0  0  0  0  0  0  0  0
   -2.9555    2.6830    1.2259 H   0  0  0  0  0  0  0  0  0  0  0  0
  1  2  1  1  0  0  0
  1 32  1  0  0  0  0
  2  3  1  6  0  0  0
  2 31  1  0  0  0  0
  3 10  1  6  0  0  0
  3 22  1  0  0  0  0
  4  3  1  0  0  0  0
  4  5  1  0  0  0  0
  5  1  1  0  0  0  0
  6  2  1  0  0  0  0
  7  6  1  0  0  0  0
  7  8  1  0  0  0  0
  8 35  1  0  0  0  0
  8  1  1  0  0  0  0
  9  5  2  0  0  0  0
 11 10  2  0  0  0  0
 12 10  1  0  0  0  0
 13 37  1  0  0  0  0
 13 12  1  0  0  0  0
 14 19  1  0  0  0  0
 14 13  1  0  0  0  0
 15 14  2  0  0  0  0
 16 17  2  0  0  0  0
 16 15  1  0  0  0  0
 17 18  1  0  0  0  0
 18 41  1  0  0  0  0
 18 19  2  0  0  0  0
 19 42  1  0  0  0  0
 20 17  1  0  0  0  0
 21 43  1  0  0  0  0
 21 20  1  0  0  0  0
 22 24  1  0  0  0  0
 22 23  1  0  0  0  0
 22 46  1  1  0  0  0
 23 30  1  1  0  0  0
 23 25  1  0  0  0  0
 24 47  1  0  0  0  0
 25 49  1  0  0  0  0
 25 48  1  0  0  0  0
 26 25  1  0  0  0  0
 26 50  1  0  0  0  0
 26 51  1  0  0  0  0
 27 53  1  0  0  0  0
 27 26  1  0  0  0  0
 28 29  2  0  0  0  0
 28 27  1  0  0  0  0
 29 23  1  0  0  0  0
 31 57  1  0  0  0  0
 33  7  2  0  0  0  0
 34  4  1  0  0  0  0
 36  8  1  0  0  0  0
 38 13  1  0  0  0  0
 39 15  1  0  0  0  0
 40 16  1  0  0  0  0
 44 21  1  0  0  0  0
 45 21  1  0  0  0  0
 52 27  1  0  0  0  0
 54 28  1  0  0  0  0
 55 29  1  0  0  0  0
 56 31  1  0  0  0  0
 58 31  1  0  0  0  0
M  END
$$$$
