
 OpenBabel11301903573D

 58 61  0  0  1  0  0  0  0  0999 V2000
   -0.9016    1.4095    0.1858 C   0  0  2  0  0  0  0  0  0  0  0  0
   -2.3592    0.8514    0.1477 C   0  0  1  0  0  0  0  0  0  0  0  0
   -2.2382   -0.7403    0.1299 C   0  0  2  0  0  0  0  0  0  0  0  0
   -0.8280   -0.9040    0.2111 N   0  0  0  0  0  0  0  0  0  0  0  0
   -0.0913    0.2005    0.1913 C   0  0  0  0  0  0  0  0  0  0  0  0
   -2.8701    1.3694   -1.0874 O   0  0  0  0  0  0  0  0  0  0  0  0
   -2.0097    2.1700   -1.7422 C   0  0  0  0  0  0  0  0  0  0  0  0
   -0.7376    2.3267   -1.0522 C   0  0  0  0  0  0  0  0  0  0  0  0
    1.1602    0.1802    0.2090 O   0  0  0  0  0  0  0  0  0  0  0  0
   -2.8864   -1.3948    1.3060 C   0  0  0  0  0  0  0  0  0  0  0  0
   -4.1394   -1.3880    1.3863 O   0  0  0  0  0  0  0  0  0  0  0  0
   -2.1527   -2.0256    2.2777 O   0  0  0  0  0  0  0  0  0  0  0  0
   -2.7237   -2.6368    3.4410 C   0  0  0  0  0  0  0  0  0  0  0  0
   -1.6962   -3.3210    4.2602 C   0  0  0  0  0  0  0  0  0  0  0  0
   -1.4448   -4.7016    4.0812 C   0  0  0  0  0  0  0  0  0  0  0  0
   -0.5308   -5.3767    4.9091 C   0  0  0  0  0  0  0  0  0  0  0  0
    0.1448   -4.6832    5.9322 C   0  0  0  0  0  0  0  0  0  0  0  0
   -0.0636   -3.2981    6.0876 C   0  0  0  0  0  0  0  0  0  0  0  0
   -0.9771   -2.6213    5.2582 C   0  0  0  0  0  0  0  0  0  0  0  0
    0.9955   -5.3519    6.7687 O   0  0  0  0  0  0  0  0  0  0  0  0
    0.3166   -5.8619    7.9331 C   0  0  0  0  0  0  0  0  0  0  0  0
   -2.7177   -1.4574   -1.2018 C   0  0  2  0  0  0  0  0  0  0  0  0
   -2.5748   -3.0353   -1.2734 C   0  0  2  0  0  0  0  0  0  0  0  0
   -4.0908   -1.1035   -1.4031 O   0  0  0  0  0  0  0  0  0  0  0  0
   -3.2594   -3.6993   -2.5149 C   0  0  0  0  0  0  0  0  0  0  0  0
   -2.4388   -3.4357   -3.8032 C   0  0  0  0  0  0  0  0  0  0  0  0
   -0.9493   -3.8643   -3.6323 C   0  0  0  0  0  0  0  0  0  0  0  0
   -0.4488   -3.8587   -2.2630 C   0  0  0  0  0  0  0  0  0  0  0  0
   -1.1876   -3.5063   -1.1955 C   0  0  0  0  0  0  0  0  0  0  0  0
   -3.0979   -3.4470   -0.4060 H   0  0  0  0  0  0  0  0  0  0  0  0
   -3.2211    1.5102    1.2762 C   0  0  0  0  0  0  0  0  0  0  0  0
   -0.6739    1.9585    1.1061 H   0  0  0  0  0  0  0  0  0  0  0  0
   -2.2936    2.7398   -2.8197 O   0  0  0  0  0  0  0  0  0  0  0  0
   -0.4182   -1.7757    0.2835 H   0  0  0  0  0  0  0  0  0  0  0  0
   -0.6131    3.3651   -0.7405 H   0  0  0  0  0  0  0  0  0  0  0  0
    0.0880    2.0363   -1.7071 H   0  0  0  0  0  0  0  0  0  0  0  0
   -3.2260   -1.8677    4.0350 H   0  0  0  0  0  0  0  0  0  0  0  0
   -3.4861   -3.3562    3.1248 H   0  0  0  0  0  0  0  0  0  0  0  0
   -1.9366   -5.2285    3.3541 H   0  0  0  0  0  0  0  0  0  0  0  0
   -0.3701   -6.3776    4.7750 H   0  0  0  0  0  0  0  0  0  0  0  0
    0.4386   -2.7842    6.8155 H   0  0  0  0  0  0  0  0  0  0  0  0
   -1.1253   -1.6179    5.3984 H   0  0  0  0  0  0  0  0  0  0  0  0
   -0.1237   -5.0544    8.5258 H   0  0  0  0  0  0  0  0  0  0  0  0
    1.0466   -6.3783    8.5566 H   0  0  0  0  0  0  0  0  0  0  0  0
   -0.4637   -6.5794    7.6611 H   0  0  0  0  0  0  0  0  0  0  0  0
   -2.1682   -1.0273   -2.0445 H   0  0  0  0  0  0  0  0  0  0  0  0
   -4.3025   -1.3624   -2.3237 H   0  0  0  0  0  0  0  0  0  0  0  0
   -4.2856   -3.3502   -2.6395 H   0  0  0  0  0  0  0  0  0  0  0  0
   -3.3137   -4.7816   -2.3555 H   0  0  0  0  0  0  0  0  0  0  0  0
   -2.4907   -2.3704   -4.0451 H   0  0  0  0  0  0  0  0  0  0  0  0
   -2.8906   -3.9792   -4.6378 H   0  0  0  0  0  0  0  0  0  0  0  0
   -0.3192   -3.2106   -4.2415 H   0  0  0  0  0  0  0  0  0  0  0  0
   -0.8314   -4.8811   -4.0165 H   0  0  0  0  0  0  0  0  0  0  0  0
    0.4867   -4.1672   -2.1133 H   0  0  0  0  0  0  0  0  0  0  0  0
   -0.7678   -3.5888   -0.2983 H   0  0  0  0  0  0  0  0  0  0  0  0
   -4.2723    1.2382    1.1703 H   0  0  0  0  0  0  0  0  0  0  0  0
   -2.8777    1.2050    2.2678 H   0  0  0  0  0  0  0  0  0  0  0  0
   -3.1502    2.5999    1.2204 H   0  0  0  0  0  0  0  0  0  0  0  0
  1  2  1  1  0  0  0
  1  5  1  0  0  0  0
  1 32  1  0  0  0  0
  2  3  1  1  0  0  0
  2 31  1  0  0  0  0
  3  4  1  0  0  0  0
  3 10  1  1  0  0  0
  4 34  1  0  0  0  0
  5  9  2  0  0  0  0
  5  4  1  0  0  0  0
  6  2  1  0  0  0  0
  7  6  1  0  0  0  0
  7  8  1  0  0  0  0
  8 35  1  0  0  0  0
  8  1  1  0  0  0  0
 10 11  2  0  0  0  0
 10 12  1  0  0  0  0
 12 13  1  0  0  0  0
 13 37  1  0  0  0  0
 13 14  1  0  0  0  0
 14 19  1  0  0  0  0
 15 14  2  0  0  0  0
 15 16  1  0  0  0  0
 16 17  2  0  0  0  0
 17 18  1  0  0  0  0
 17 20  1  0  0  0  0
 18 41  1  0  0  0  0
 19 42  1  0  0  0  0
 19 18  2  0  0  0  0
 20 21  1  0  0  0  0
 21 43  1  0  0  0  0
 21 44  1  0  0  0  0
 22 46  1  6  0  0  0
 22  3  1  0  0  0  0
 23 22  1  0  0  0  0
 23 29  1  0  0  0  0
 23 30  1  1  0  0  0
 24 22  1  0  0  0  0
 25 49  1  0  0  0  0
 25 23  1  0  0  0  0
 26 27  1  0  0  0  0
 26 25  1  0  0  0  0
 27 28  1  0  0  0  0
 28 54  1  0  0  0  0
 28 29  2  0  0  0  0
 29 55  1  0  0  0  0
 31 57  1  0  0  0  0
 33  7  2  0  0  0  0
 36  8  1  0  0  0  0
 38 13  1  0  0  0  0
 39 15  1  0  0  0  0
 40 16  1  0  0  0  0
 45 21  1  0  0  0  0
 47 24  1  0  0  0  0
 48 25  1  0  0  0  0
 50 26  1  0  0  0  0
 51 26  1  0  0  0  0
 52 27  1  0  0  0  0
 53 27  1  0  0  0  0
 56 31  1  0  0  0  0
 58 31  1  0  0  0  0
M  END
$$$$
