
 OpenBabel11301903573D

 58 61  0  0  1  0  0  0  0  0999 V2000
   -0.8330    1.3429    0.1975 C   0  0  2  0  0  0  0  0  0  0  0  0
   -2.3091    0.8423    0.1417 C   0  0  1  0  0  0  0  0  0  0  0  0
   -2.2324   -0.7502    0.0585 C   0  0  1  0  0  0  0  0  0  0  0  0
   -0.8308   -0.9761   -0.0458 N   0  0  0  0  0  0  0  0  0  0  0  0
   -0.0642    0.1095    0.0414 C   0  0  0  0  0  0  0  0  0  0  0  0
   -2.7879    1.4320   -1.0776 O   0  0  0  0  0  0  0  0  0  0  0  0
   -1.9085    2.2413   -1.6906 C   0  0  0  0  0  0  0  0  0  0  0  0
   -0.6476    2.3506   -0.9691 C   0  0  0  0  0  0  0  0  0  0  0  0
    1.1855    0.0596    0.0058 O   0  0  0  0  0  0  0  0  0  0  0  0
   -2.9031   -1.2624   -1.1750 C   0  0  0  0  0  0  0  0  0  0  0  0
   -4.1395   -1.0967   -1.3113 O   0  0  0  0  0  0  0  0  0  0  0  0
   -2.1936   -1.9369   -2.1367 O   0  0  0  0  0  0  0  0  0  0  0  0
   -2.7432   -2.5552   -3.3049 C   0  0  0  0  0  0  0  0  0  0  0  0
   -1.6988   -3.2916   -4.0607 C   0  0  0  0  0  0  0  0  0  0  0  0
   -0.9358   -2.6392   -5.0564 C   0  0  0  0  0  0  0  0  0  0  0  0
   -0.0275   -3.3603   -5.8546 C   0  0  0  0  0  0  0  0  0  0  0  0
    0.1429   -4.7460   -5.6643 C   0  0  0  0  0  0  0  0  0  0  0  0
   -0.5594   -5.3911   -4.6268 C   0  0  0  0  0  0  0  0  0  0  0  0
   -1.4690   -4.6691   -3.8300 C   0  0  0  0  0  0  0  0  0  0  0  0
    0.9976   -5.4526   -6.4692 O   0  0  0  0  0  0  0  0  0  0  0  0
    0.3461   -5.9844   -7.6380 C   0  0  0  0  0  0  0  0  0  0  0  0
   -2.7397   -1.5319    1.3400 C   0  0  2  0  0  0  0  0  0  0  0  0
   -2.6230   -3.1064    1.4284 C   0  0  2  0  0  0  0  0  0  0  0  0
   -2.0125   -1.0233    2.4653 O   0  0  0  0  0  0  0  0  0  0  0  0
   -3.2803   -3.6896    2.7286 C   0  0  0  0  0  0  0  0  0  0  0  0
   -4.8307   -3.6965    2.6313 C   0  0  0  0  0  0  0  0  0  0  0  0
   -5.3356   -4.3575    1.3140 C   0  0  0  0  0  0  0  0  0  0  0  0
   -4.3822   -4.3775    0.2144 C   0  0  0  0  0  0  0  0  0  0  0  0
   -3.1516   -3.8393    0.2761 C   0  0  0  0  0  0  0  0  0  0  0  0
   -1.5544   -3.3449    1.4865 H   0  0  0  0  0  0  0  0  0  0  0  0
   -3.2022    1.4740    1.2587 C   0  0  0  0  0  0  0  0  0  0  0  0
   -0.5746    1.7987    1.1590 H   0  0  0  0  0  0  0  0  0  0  0  0
   -2.1693    2.8433   -2.7561 O   0  0  0  0  0  0  0  0  0  0  0  0
   -0.4567   -1.8635   -0.1602 H   0  0  0  0  0  0  0  0  0  0  0  0
   -0.5272    3.3701   -0.5934 H   0  0  0  0  0  0  0  0  0  0  0  0
    0.1907    2.1064   -1.6281 H   0  0  0  0  0  0  0  0  0  0  0  0
   -3.5355   -3.2469   -3.0046 H   0  0  0  0  0  0  0  0  0  0  0  0
   -3.2019   -1.7909   -3.9364 H   0  0  0  0  0  0  0  0  0  0  0  0
   -1.0461   -1.6361   -5.2187 H   0  0  0  0  0  0  0  0  0  0  0  0
    0.5024   -2.8759   -6.5824 H   0  0  0  0  0  0  0  0  0  0  0  0
   -0.4170   -6.3897   -4.4567 H   0  0  0  0  0  0  0  0  0  0  0  0
   -1.9712   -5.1623   -3.0882 H   0  0  0  0  0  0  0  0  0  0  0  0
   -0.4444   -6.6888   -7.3668 H   0  0  0  0  0  0  0  0  0  0  0  0
    1.0898   -6.5199   -8.2281 H   0  0  0  0  0  0  0  0  0  0  0  0
   -0.0727   -5.1894   -8.2608 H   0  0  0  0  0  0  0  0  0  0  0  0
   -3.7893   -1.2670    1.4761 H   0  0  0  0  0  0  0  0  0  0  0  0
   -2.5300   -1.2691    3.2584 H   0  0  0  0  0  0  0  0  0  0  0  0
   -2.9735   -3.1386    3.6192 H   0  0  0  0  0  0  0  0  0  0  0  0
   -2.9380   -4.7199    2.8657 H   0  0  0  0  0  0  0  0  0  0  0  0
   -5.2061   -2.6726    2.6899 H   0  0  0  0  0  0  0  0  0  0  0  0
   -5.2398   -4.2334    3.4902 H   0  0  0  0  0  0  0  0  0  0  0  0
   -6.2455   -3.8506    0.9799 H   0  0  0  0  0  0  0  0  0  0  0  0
   -5.5996   -5.3965    1.5240 H   0  0  0  0  0  0  0  0  0  0  0  0
   -4.6515   -4.8468   -0.6222 H   0  0  0  0  0  0  0  0  0  0  0  0
   -2.5552   -3.9601   -0.5103 H   0  0  0  0  0  0  0  0  0  0  0  0
   -4.2201    1.0868    1.1996 H   0  0  0  0  0  0  0  0  0  0  0  0
   -2.8088    1.2791    2.2551 H   0  0  0  0  0  0  0  0  0  0  0  0
   -3.2478    2.5580    1.1442 H   0  0  0  0  0  0  0  0  0  0  0  0
  1  2  1  1  0  0  0
  1 32  1  0  0  0  0
  2  3  1  6  0  0  0
  2 31  1  0  0  0  0
  3 10  1  6  0  0  0
  3 22  1  0  0  0  0
  4  5  1  0  0  0  0
  4  3  1  0  0  0  0
  5  1  1  0  0  0  0
  6  2  1  0  0  0  0
  7  6  1  0  0  0  0
  7  8  1  0  0  0  0
  8 35  1  0  0  0  0
  8  1  1  0  0  0  0
  9  5  2  0  0  0  0
 11 10  2  0  0  0  0
 12 10  1  0  0  0  0
 13 37  1  0  0  0  0
 13 12  1  0  0  0  0
 14 19  1  0  0  0  0
 14 13  1  0  0  0  0
 15 14  2  0  0  0  0
 16 17  2  0  0  0  0
 16 15  1  0  0  0  0
 17 18  1  0  0  0  0
 18 41  1  0  0  0  0
 18 19  2  0  0  0  0
 19 42  1  0  0  0  0
 20 17  1  0  0  0  0
 21 43  1  0  0  0  0
 21 20  1  0  0  0  0
 22 23  1  0  0  0  0
 22 46  1  1  0  0  0
 22 24  1  0  0  0  0
 23 30  1  1  0  0  0
 23 25  1  0  0  0  0
 24 47  1  0  0  0  0
 25 49  1  0  0  0  0
 25 48  1  0  0  0  0
 26 50  1  0  0  0  0
 26 25  1  0  0  0  0
 26 51  1  0  0  0  0
 27 53  1  0  0  0  0
 27 26  1  0  0  0  0
 28 29  2  0  0  0  0
 28 27  1  0  0  0  0
 29 23  1  0  0  0  0
 31 57  1  0  0  0  0
 33  7  2  0  0  0  0
 34  4  1  0  0  0  0
 36  8  1  0  0  0  0
 38 13  1  0  0  0  0
 39 15  1  0  0  0  0
 40 16  1  0  0  0  0
 44 21  1  0  0  0  0
 45 21  1  0  0  0  0
 52 27  1  0  0  0  0
 54 28  1  0  0  0  0
 55 29  1  0  0  0  0
 56 31  1  0  0  0  0
 58 31  1  0  0  0  0
M  END
$$$$
