S24a
     RDKit          3D

 23 25  0  0  1  0  0  0  0  0999 V2000
   -1.5735   -1.3974    0.4230 C   0  0  0  0  0  0  0  0  0  0  0  0
   -0.6915   -0.3337    0.1377 C   0  0  0  0  0  0  0  0  0  0  0  0
   -1.2414    0.9654   -0.0218 C   0  0  0  0  0  0  0  0  0  0  0  0
   -2.6271    1.1557    0.1064 C   0  0  0  0  0  0  0  0  0  0  0  0
   -3.4748    0.0845    0.3890 C   0  0  0  0  0  0  0  0  0  0  0  0
   -2.9487   -1.1917    0.5473 C   0  0  0  0  0  0  0  0  0  0  0  0
    0.7076   -0.5196    0.0072 C   0  0  0  0  0  0  0  0  0  0  0  0
    1.5145    0.5909   -0.2775 C   0  0  0  0  0  0  0  0  0  0  0  0
    0.9761    1.8684   -0.4346 C   0  0  0  0  0  0  0  0  0  0  0  0
   -0.3984    2.0507   -0.3063 C   0  0  0  0  0  0  0  0  0  0  0  0
    1.2668   -1.8114    0.1643 N   0  0  0  0  0  0  0  0  0  0  0  0
    2.5413   -1.9413    0.0387 C   0  0  0  0  0  0  0  0  0  0  0  0
    3.3934   -0.9150   -0.2367 N   0  0  0  0  0  0  0  0  0  0  0  0
    2.9671    0.3748   -0.4090 C   0  0  0  0  0  0  0  0  0  0  0  0
    3.7461    1.2876   -0.6564 O   0  0  0  0  0  0  0  0  0  0  0  0
   -1.1823   -2.4056    0.5509 H   0  0  0  0  0  0  0  0  0  0  0  0
   -3.0608    2.1464   -0.0136 H   0  0  0  0  0  0  0  0  0  0  0  0
   -4.5449    0.2482    0.4851 H   0  0  0  0  0  0  0  0  0  0  0  0
   -3.6039   -2.0304    0.7676 H   0  0  0  0  0  0  0  0  0  0  0  0
    1.6208    2.7159   -0.6552 H   0  0  0  0  0  0  0  0  0  0  0  0
   -0.8091    3.0509   -0.4306 H   0  0  0  0  0  0  0  0  0  0  0  0
    3.0361   -2.9189    0.1493 H   0  0  0  0  0  0  0  0  0  0  0  0
    4.3864   -1.0741   -0.3247 H   0  0  0  0  0  0  0  0  0  0  0  0
  1  2  2  0
  1  6  1  0
  1 16  1  0
  2  3  1  0
  2  7  1  0
  3  4  2  0
  3 10  1  0
  4  5  1  0
  4 17  1  0
  5  6  2  0
  5 18  1  0
  6 19  1  0
  7  8  2  0
  7 11  1  0
  8  9  1  0
  8 14  1  0
  9 10  2  0
  9 20  1  0
 10 21  1  0
 11 12  2  0
 12 13  1  0
 12 22  1  0
 13 14  1  0
 13 23  1  0
 14 15  2  0
M  END
$$$$
