
 OpenBabel11301903553D

 33 34  0  0  1  0  0  0  0  0999 V2000
   -1.7773   -1.3634    2.6265 C   0  0  0  0  0  0  0  0  0  0  0  0
   -1.0424   -1.5740    3.7587 O   0  0  0  0  0  0  0  0  0  0  0  0
   -0.2858   -2.7458    4.0713 C   0  0  0  0  0  0  0  0  0  0  0  0
   -2.4326   -0.0455    2.4355 C   0  0  2  0  0  0  0  0  0  0  0  0
   -1.8859    0.8032    1.2692 C   0  0  1  0  0  0  0  0  0  0  0  0
   -0.4239    0.7323    1.0840 C   0  0  0  0  0  0  0  0  0  0  0  0
    0.1114    0.1145   -0.0068 O   0  0  0  0  0  0  0  0  0  0  0  0
   -1.8631   -2.2510    1.7450 O   0  0  0  0  0  0  0  0  0  0  0  0
   -3.8168   -0.2174    2.1211 O   0  0  0  0  0  0  0  0  0  0  0  0
   -2.6469    0.3262    0.1631 O   0  0  0  0  0  0  0  0  0  0  0  0
   -3.9519    0.0625    0.7131 C   0  0  0  0  0  0  0  0  0  0  0  0
   -4.6208   -1.1243   -0.0083 C   0  0  0  0  0  0  0  0  0  0  0  0
   -6.1293   -0.9474    0.2403 C   0  0  0  0  0  0  0  0  0  0  0  0
   -6.3531    0.5675    0.4464 C   0  0  0  0  0  0  0  0  0  0  0  0
   -4.9534    1.2213    0.4831 C   0  0  0  0  0  0  0  0  0  0  0  0
    0.3121    1.2233    1.9717 O   0  0  0  0  0  0  0  0  0  0  0  0
    1.5119   -0.0419   -0.2623 C   0  0  0  0  0  0  0  0  0  0  0  0
    0.4630   -2.9262    3.2970 H   0  0  0  0  0  0  0  0  0  0  0  0
    0.2212   -2.5929    5.0238 H   0  0  0  0  0  0  0  0  0  0  0  0
   -0.9451   -3.6108    4.1528 H   0  0  0  0  0  0  0  0  0  0  0  0
   -2.3506    0.5277    3.3635 H   0  0  0  0  0  0  0  0  0  0  0  0
    1.9760    0.9363   -0.3950 H   0  0  0  0  0  0  0  0  0  0  0  0
    1.6495   -0.6251   -1.1728 H   0  0  0  0  0  0  0  0  0  0  0  0
    1.9932   -0.5635    0.5688 H   0  0  0  0  0  0  0  0  0  0  0  0
   -4.2636   -2.0816    0.3768 H   0  0  0  0  0  0  0  0  0  0  0  0
   -4.4149   -1.0800   -1.0825 H   0  0  0  0  0  0  0  0  0  0  0  0
   -6.7085   -1.3296   -0.6051 H   0  0  0  0  0  0  0  0  0  0  0  0
   -6.4216   -1.4968    1.1401 H   0  0  0  0  0  0  0  0  0  0  0  0
   -6.8878    0.7431    1.3861 H   0  0  0  0  0  0  0  0  0  0  0  0
   -6.9485    0.9834   -0.3713 H   0  0  0  0  0  0  0  0  0  0  0  0
   -4.7465    1.7087   -0.4751 H   0  0  0  0  0  0  0  0  0  0  0  0
   -4.8891    1.9761    1.2727 H   0  0  0  0  0  0  0  0  0  0  0  0
   -2.1407    1.8576    1.4272 H   0  0  0  0  0  0  0  0  0  0  0  0
  1  2  1  0  0  0  0
  2  3  1  0  0  0  0
  3 20  1  0  0  0  0
  3 19  1  0  0  0  0
  4  5  1  6  0  0  0
  4  1  1  0  0  0  0
  4 21  1  0  0  0  0
  5 33  1  1  0  0  0
  6  5  1  0  0  0  0
  6 16  2  0  0  0  0
  7  6  1  0  0  0  0
  8  1  2  0  0  0  0
  9  4  1  0  0  0  0
 10 11  1  0  0  0  0
 10  5  1  0  0  0  0
 11  9  1  0  0  0  0
 12 13  1  0  0  0  0
 12 25  1  0  0  0  0
 12 11  1  0  0  0  0
 13 14  1  0  0  0  0
 13 28  1  0  0  0  0
 14 15  1  0  0  0  0
 14 29  1  0  0  0  0
 15 11  1  0  0  0  0
 15 32  1  0  0  0  0
 17  7  1  0  0  0  0
 17 24  1  0  0  0  0
 18  3  1  0  0  0  0
 22 17  1  0  0  0  0
 23 17  1  0  0  0  0
 26 12  1  0  0  0  0
 27 13  1  0  0  0  0
 30 14  1  0  0  0  0
 31 15  1  0  0  0  0
M  END
$$$$
