
 OpenBabel11301904073D

 57 57  0  0  1  0  0  0  0  0999 V2000
  -12.3493    6.5392    2.2743 C   0  0  0  0  0  0  0  0  0  0  0  0
  -11.6192    5.2110    1.9775 C   0  0  0  0  0  0  0  0  0  0  0  0
  -10.1501    5.3592    1.9559 C   0  0  0  0  0  0  0  0  0  0  0  0
   -9.3822    4.6405    2.8351 O   0  0  0  0  0  0  0  0  0  0  0  0
   -9.6250    6.1341    1.1204 O   0  0  0  0  0  0  0  0  0  0  0  0
   -7.9415    4.6353    2.9558 C   0  0  2  0  0  0  0  0  0  0  0  0
   -7.4265    3.6891    1.8355 C   0  0  0  0  0  0  0  0  0  0  0  0
   -7.4936    4.2393    4.4198 C   0  0  1  0  0  0  0  0  0  0  0  0
   -5.9258    4.3093    4.6700 C   0  0  1  0  0  0  0  0  0  0  0  0
   -5.3423    3.4908    5.8891 C   0  0  2  0  0  0  0  0  0  0  0  0
   -3.7781    3.3987    5.8278 C   0  0  0  0  0  0  0  0  0  0  0  0
   -3.2948    2.7681    4.6180 O   0  0  0  0  0  0  0  0  0  0  0  0
   -1.8551    2.6651    4.5611 C   0  0  0  0  0  0  0  0  0  0  0  0
   -1.4138    1.9503    3.3365 C   0  0  0  0  0  0  0  0  0  0  0  0
   -1.1738    0.5558    3.3597 C   0  0  0  0  0  0  0  0  0  0  0  0
   -0.6787   -0.1082    2.2225 C   0  0  0  0  0  0  0  0  0  0  0  0
   -0.4223    0.6077    1.0366 C   0  0  0  0  0  0  0  0  0  0  0  0
   -0.6877    1.9912    0.9944 C   0  0  0  0  0  0  0  0  0  0  0  0
   -1.1852    2.6547    2.1316 C   0  0  0  0  0  0  0  0  0  0  0  0
    0.0569   -0.0384   -0.0699 O   0  0  0  0  0  0  0  0  0  0  0  0
    1.4943   -0.0641   -0.1109 C   0  0  0  0  0  0  0  0  0  0  0  0
   -8.3181    5.0395    5.4837 C   0  0  0  0  0  0  0  0  0  0  0  0
   -5.7564    4.0228    7.2999 C   0  0  0  0  0  0  0  0  0  0  0  0
   -5.4115    5.6608    4.8024 O   0  0  0  0  0  0  0  0  0  0  0  0
   -5.1084    6.4236    3.6172 C   0  0  0  0  0  0  0  0  0  0  0  0
  -13.4290    6.3884    2.2087 H   0  0  0  0  0  0  0  0  0  0  0  0
  -12.0654    7.3068    1.5510 H   0  0  0  0  0  0  0  0  0  0  0  0
  -12.1034    6.8863    3.2796 H   0  0  0  0  0  0  0  0  0  0  0  0
  -11.9058    4.4803    2.7364 H   0  0  0  0  0  0  0  0  0  0  0  0
  -11.9546    4.8263    1.0123 H   0  0  0  0  0  0  0  0  0  0  0  0
   -7.5842    5.6433    2.7455 H   0  0  0  0  0  0  0  0  0  0  0  0
   -7.8609    3.9711    0.8743 H   0  0  0  0  0  0  0  0  0  0  0  0
   -7.7121    2.6576    2.0507 H   0  0  0  0  0  0  0  0  0  0  0  0
   -6.3450    3.7456    1.7277 H   0  0  0  0  0  0  0  0  0  0  0  0
   -7.7851    3.1905    4.5369 H   0  0  0  0  0  0  0  0  0  0  0  0
   -5.4581    3.8322    3.8077 H   0  0  0  0  0  0  0  0  0  0  0  0
   -5.7134    2.4636    5.8113 H   0  0  0  0  0  0  0  0  0  0  0  0
   -3.3553    4.4051    5.9171 H   0  0  0  0  0  0  0  0  0  0  0  0
   -3.4255    2.8105    6.6817 H   0  0  0  0  0  0  0  0  0  0  0  0
   -1.4067    3.6632    4.5772 H   0  0  0  0  0  0  0  0  0  0  0  0
   -1.4833    2.1302    5.4403 H   0  0  0  0  0  0  0  0  0  0  0  0
   -1.3490    0.0130    4.2088 H   0  0  0  0  0  0  0  0  0  0  0  0
   -0.4972   -1.1136    2.2613 H   0  0  0  0  0  0  0  0  0  0  0  0
   -0.5107    2.5184    0.1368 H   0  0  0  0  0  0  0  0  0  0  0  0
   -1.3672    3.6599    2.0761 H   0  0  0  0  0  0  0  0  0  0  0  0
    1.9068   -0.5983    0.7492 H   0  0  0  0  0  0  0  0  0  0  0  0
    1.7998   -0.5891   -1.0157 H   0  0  0  0  0  0  0  0  0  0  0  0
    1.9082    0.9472   -0.1469 H   0  0  0  0  0  0  0  0  0  0  0  0
   -8.4445    4.4514    6.3893 H   0  0  0  0  0  0  0  0  0  0  0  0
   -9.3291    5.2704    5.1496 H   0  0  0  0  0  0  0  0  0  0  0  0
   -7.8354    5.9826    5.7387 H   0  0  0  0  0  0  0  0  0  0  0  0
   -5.0920    3.6537    8.0834 H   0  0  0  0  0  0  0  0  0  0  0  0
   -5.7333    5.1132    7.3332 H   0  0  0  0  0  0  0  0  0  0  0  0
   -6.7512    3.6768    7.5682 H   0  0  0  0  0  0  0  0  0  0  0  0
   -4.9874    5.8178    2.7174 H   0  0  0  0  0  0  0  0  0  0  0  0
   -4.1739    6.9610    3.7839 H   0  0  0  0  0  0  0  0  0  0  0  0
   -5.8977    7.1569    3.4537 H   0  0  0  0  0  0  0  0  0  0  0  0
  1 28  1  0  0  0  0
  2  1  1  0  0  0  0
  2 29  1  0  0  0  0
  3  2  1  0  0  0  0
  3  4  1  0  0  0  0
  4  6  1  0  0  0  0
  5  3  2  0  0  0  0
  6 31  1  6  0  0  0
  6  8  1  0  0  0  0
  7 33  1  0  0  0  0
  7  6  1  0  0  0  0
  8 35  1  1  0  0  0
  8  9  1  0  0  0  0
  8 22  1  0  0  0  0
  9 36  1  6  0  0  0
  9 24  1  0  0  0  0
  9 10  1  0  0  0  0
 10 37  1  6  0  0  0
 10 23  1  0  0  0  0
 11 10  1  0  0  0  0
 11 38  1  0  0  0  0
 11 39  1  0  0  0  0
 12 11  1  0  0  0  0
 13 40  1  0  0  0  0
 13 12  1  0  0  0  0
 13 41  1  0  0  0  0
 14 15  1  0  0  0  0
 14 13  1  0  0  0  0
 15 42  1  0  0  0  0
 16 43  1  0  0  0  0
 16 15  2  0  0  0  0
 17 16  1  0  0  0  0
 18 17  2  0  0  0  0
 18 19  1  0  0  0  0
 19 14  2  0  0  0  0
 20 17  1  0  0  0  0
 21 20  1  0  0  0  0
 21 46  1  0  0  0  0
 22 51  1  0  0  0  0
 22 49  1  0  0  0  0
 23 53  1  0  0  0  0
 23 54  1  0  0  0  0
 23 52  1  0  0  0  0
 25 56  1  0  0  0  0
 25 24  1  0  0  0  0
 26  1  1  0  0  0  0
 27  1  1  0  0  0  0
 30  2  1  0  0  0  0
 32  7  1  0  0  0  0
 34  7  1  0  0  0  0
 44 18  1  0  0  0  0
 45 19  1  0  0  0  0
 47 21  1  0  0  0  0
 48 21  1  0  0  0  0
 50 22  1  0  0  0  0
 55 25  1  0  0  0  0
 57 25  1  0  0  0  0
M  END
$$$$
