
 OpenBabel11301904073D

 57 57  0  0  1  0  0  0  0  0999 V2000
   -3.7567    9.4496   -0.2796 C   0  0  0  0  0  0  0  0  0  0  0  0
   -3.8790    8.2369    0.6719 C   0  0  0  0  0  0  0  0  0  0  0  0
   -4.9215    8.3516    1.7093 C   0  0  0  0  0  0  0  0  0  0  0  0
   -5.0588    7.3090    2.5797 O   0  0  0  0  0  0  0  0  0  0  0  0
   -5.6586    9.3629    1.7923 O   0  0  0  0  0  0  0  0  0  0  0  0
   -5.9908    7.1698    3.6669 C   0  0  1  0  0  0  0  0  0  0  0  0
   -6.9478    6.0030    3.3341 C   0  0  0  0  0  0  0  0  0  0  0  0
   -5.2443    7.0687    5.0445 C   0  0  1  0  0  0  0  0  0  0  0  0
   -4.2014    5.8891    5.2332 C   0  0  2  0  0  0  0  0  0  0  0  0
   -4.7589    4.4439    5.5534 C   0  0  2  0  0  0  0  0  0  0  0  0
   -3.5986    3.4126    5.7869 C   0  0  0  0  0  0  0  0  0  0  0  0
   -2.9642    3.0073    4.5496 O   0  0  0  0  0  0  0  0  0  0  0  0
   -1.7582    2.2281    4.7247 C   0  0  0  0  0  0  0  0  0  0  0  0
   -1.3274    1.5906    3.4514 C   0  0  0  0  0  0  0  0  0  0  0  0
   -1.1220    0.1922    3.3711 C   0  0  0  0  0  0  0  0  0  0  0  0
   -0.6456   -0.4022    2.1877 C   0  0  0  0  0  0  0  0  0  0  0  0
   -0.3701    0.3917    1.0565 C   0  0  0  0  0  0  0  0  0  0  0  0
   -0.5929    1.7809    1.1185 C   0  0  0  0  0  0  0  0  0  0  0  0
   -1.0657    2.3750    2.3047 C   0  0  0  0  0  0  0  0  0  0  0  0
    0.0865   -0.1891   -0.0963 O   0  0  0  0  0  0  0  0  0  0  0  0
    1.5212   -0.1840   -0.1959 C   0  0  0  0  0  0  0  0  0  0  0  0
   -4.6225    8.4634    5.3783 C   0  0  0  0  0  0  0  0  0  0  0  0
   -5.7302    4.4186    6.7749 C   0  0  0  0  0  0  0  0  0  0  0  0
   -3.3461    5.7699    4.0685 O   0  0  0  0  0  0  0  0  0  0  0  0
   -2.0206    6.3257    4.1579 C   0  0  0  0  0  0  0  0  0  0  0  0
   -2.9796    9.2571   -1.0229 H   0  0  0  0  0  0  0  0  0  0  0  0
   -3.4866   10.3466    0.2831 H   0  0  0  0  0  0  0  0  0  0  0  0
   -4.7004    9.6277   -0.8023 H   0  0  0  0  0  0  0  0  0  0  0  0
   -4.0902    7.3473    0.0744 H   0  0  0  0  0  0  0  0  0  0  0  0
   -2.9176    8.0928    1.1689 H   0  0  0  0  0  0  0  0  0  0  0  0
   -6.6385    8.0531    3.7127 H   0  0  0  0  0  0  0  0  0  0  0  0
   -7.5978    6.2889    2.5044 H   0  0  0  0  0  0  0  0  0  0  0  0
   -6.3944    5.1174    3.0280 H   0  0  0  0  0  0  0  0  0  0  0  0
   -7.5754    5.7654    4.1943 H   0  0  0  0  0  0  0  0  0  0  0  0
   -6.0161    6.9549    5.8055 H   0  0  0  0  0  0  0  0  0  0  0  0
   -3.6113    6.1463    6.1218 H   0  0  0  0  0  0  0  0  0  0  0  0
   -5.3226    4.0684    4.7000 H   0  0  0  0  0  0  0  0  0  0  0  0
   -2.8646    3.8442    6.4761 H   0  0  0  0  0  0  0  0  0  0  0  0
   -3.9955    2.5037    6.2507 H   0  0  0  0  0  0  0  0  0  0  0  0
   -0.9576    2.8903    5.0650 H   0  0  0  0  0  0  0  0  0  0  0  0
   -1.9023    1.4642    5.4970 H   0  0  0  0  0  0  0  0  0  0  0  0
   -1.3014   -0.4068    4.1797 H   0  0  0  0  0  0  0  0  0  0  0  0
   -0.4950   -1.4122    2.1544 H   0  0  0  0  0  0  0  0  0  0  0  0
   -0.4037    2.3640    0.3005 H   0  0  0  0  0  0  0  0  0  0  0  0
   -1.2061    3.3877    2.3264 H   0  0  0  0  0  0  0  0  0  0  0  0
    1.9832   -0.7238    0.6347 H   0  0  0  0  0  0  0  0  0  0  0  0
    1.7965   -0.6874   -1.1224 H   0  0  0  0  0  0  0  0  0  0  0  0
    1.9149    0.8349   -0.2326 H   0  0  0  0  0  0  0  0  0  0  0  0
   -4.1517    8.4555    6.3637 H   0  0  0  0  0  0  0  0  0  0  0  0
   -5.3943    9.2384    5.3959 H   0  0  0  0  0  0  0  0  0  0  0  0
   -3.8802    8.7560    4.6357 H   0  0  0  0  0  0  0  0  0  0  0  0
   -5.9946    3.3936    7.0452 H   0  0  0  0  0  0  0  0  0  0  0  0
   -5.2673    4.8978    7.6400 H   0  0  0  0  0  0  0  0  0  0  0  0
   -6.6653    4.9300    6.5457 H   0  0  0  0  0  0  0  0  0  0  0  0
   -1.4720    5.9303    5.0161 H   0  0  0  0  0  0  0  0  0  0  0  0
   -2.0505    7.4131    4.2141 H   0  0  0  0  0  0  0  0  0  0  0  0
   -1.4816    6.0460    3.2533 H   0  0  0  0  0  0  0  0  0  0  0  0
  1 27  1  0  0  0  0
  1  2  1  0  0  0  0
  2 30  1  0  0  0  0
  2  3  1  0  0  0  0
  3  5  2  0  0  0  0
  3  4  1  0  0  0  0
  4  6  1  0  0  0  0
  6 31  1  1  0  0  0
  6  8  1  0  0  0  0
  7  6  1  0  0  0  0
  7 34  1  0  0  0  0
  8  9  1  0  0  0  0
  8 22  1  0  0  0  0
  8 35  1  1  0  0  0
  9 10  1  0  0  0  0
  9 36  1  1  0  0  0
 10 37  1  6  0  0  0
 10 11  1  0  0  0  0
 10 23  1  0  0  0  0
 11 39  1  0  0  0  0
 11 38  1  0  0  0  0
 12 13  1  0  0  0  0
 12 11  1  0  0  0  0
 13 40  1  0  0  0  0
 13 41  1  0  0  0  0
 14 13  1  0  0  0  0
 15 14  1  0  0  0  0
 15 42  1  0  0  0  0
 16 15  2  0  0  0  0
 17 18  2  0  0  0  0
 17 16  1  0  0  0  0
 18 19  1  0  0  0  0
 19 45  1  0  0  0  0
 19 14  2  0  0  0  0
 20 17  1  0  0  0  0
 21 20  1  0  0  0  0
 21 46  1  0  0  0  0
 22 50  1  0  0  0  0
 22 49  1  0  0  0  0
 23 52  1  0  0  0  0
 23 53  1  0  0  0  0
 24 25  1  0  0  0  0
 24  9  1  0  0  0  0
 25 56  1  0  0  0  0
 25 55  1  0  0  0  0
 26  1  1  0  0  0  0
 28  1  1  0  0  0  0
 29  2  1  0  0  0  0
 32  7  1  0  0  0  0
 33  7  1  0  0  0  0
 43 16  1  0  0  0  0
 44 18  1  0  0  0  0
 47 21  1  0  0  0  0
 48 21  1  0  0  0  0
 51 22  1  0  0  0  0
 54 23  1  0  0  0  0
 57 25  1  0  0  0  0
M  END
$$$$
