
 OpenBabel11301904073D

 57 57  0  0  1  0  0  0  0  0999 V2000
    0.1180   11.2435    3.1034 C   0  0  0  0  0  0  0  0  0  0  0  0
    0.0818    9.8640    3.8012 C   0  0  0  0  0  0  0  0  0  0  0  0
   -0.8247    9.8342    4.9649 C   0  0  0  0  0  0  0  0  0  0  0  0
   -1.7717    8.8529    5.0751 O   0  0  0  0  0  0  0  0  0  0  0  0
   -0.7056   10.7138    5.8504 O   0  0  0  0  0  0  0  0  0  0  0  0
   -2.7113    8.6747    6.1522 C   0  0  2  0  0  0  0  0  0  0  0  0
   -1.9847    8.4130    7.5059 C   0  0  0  0  0  0  0  0  0  0  0  0
   -3.7742    7.5745    5.7976 C   0  0  2  0  0  0  0  0  0  0  0  0
   -3.1875    6.1165    5.6792 C   0  0  2  0  0  0  0  0  0  0  0  0
   -4.2357    4.9390    5.6497 C   0  0  2  0  0  0  0  0  0  0  0  0
   -3.5254    3.5500    5.7475 C   0  0  0  0  0  0  0  0  0  0  0  0
   -2.8789    3.1663    4.5126 O   0  0  0  0  0  0  0  0  0  0  0  0
   -1.9704    2.0500    4.6664 C   0  0  0  0  0  0  0  0  0  0  0  0
   -1.4805    1.4926    3.3808 C   0  0  0  0  0  0  0  0  0  0  0  0
   -1.1529    0.1182    3.2975 C   0  0  0  0  0  0  0  0  0  0  0  0
   -0.6249   -0.4263    2.1142 C   0  0  0  0  0  0  0  0  0  0  0  0
   -0.4134    0.3962    0.9910 C   0  0  0  0  0  0  0  0  0  0  0  0
   -0.7698    1.7581    1.0507 C   0  0  0  0  0  0  0  0  0  0  0  0
   -1.2810    2.3056    2.2411 C   0  0  0  0  0  0  0  0  0  0  0  0
    0.1162   -0.1286   -0.1569 O   0  0  0  0  0  0  0  0  0  0  0  0
    1.5545   -0.0706   -0.1786 C   0  0  0  0  0  0  0  0  0  0  0  0
   -4.6109    7.9816    4.5475 C   0  0  0  0  0  0  0  0  0  0  0  0
   -5.3114    5.0392    6.7766 C   0  0  0  0  0  0  0  0  0  0  0  0
   -2.3818    6.0510    4.4729 O   0  0  0  0  0  0  0  0  0  0  0  0
   -0.9605    5.8260    4.5826 C   0  0  0  0  0  0  0  0  0  0  0  0
    0.7770   11.2050    2.2350 H   0  0  0  0  0  0  0  0  0  0  0  0
    0.4998   12.0052    3.7862 H   0  0  0  0  0  0  0  0  0  0  0  0
   -0.8803   11.5340    2.7719 H   0  0  0  0  0  0  0  0  0  0  0  0
   -0.2201    9.1074    3.0716 H   0  0  0  0  0  0  0  0  0  0  0  0
    1.0882    9.6175    4.1474 H   0  0  0  0  0  0  0  0  0  0  0  0
   -3.2510    9.6209    6.2687 H   0  0  0  0  0  0  0  0  0  0  0  0
   -1.5226    9.3273    7.8799 H   0  0  0  0  0  0  0  0  0  0  0  0
   -1.1992    7.6656    7.3870 H   0  0  0  0  0  0  0  0  0  0  0  0
   -2.6872    8.0667    8.2667 H   0  0  0  0  0  0  0  0  0  0  0  0
   -4.4699    7.5948    6.6405 H   0  0  0  0  0  0  0  0  0  0  0  0
   -2.5911    5.9431    6.5785 H   0  0  0  0  0  0  0  0  0  0  0  0
   -4.7693    4.9648    4.6956 H   0  0  0  0  0  0  0  0  0  0  0  0
   -2.8119    3.5788    6.5791 H   0  0  0  0  0  0  0  0  0  0  0  0
   -4.2575    2.7685    5.9685 H   0  0  0  0  0  0  0  0  0  0  0  0
   -1.0955    2.3856    5.2307 H   0  0  0  0  0  0  0  0  0  0  0  0
   -2.4550    1.2533    5.2429 H   0  0  0  0  0  0  0  0  0  0  0  0
   -1.2898   -0.4959    4.1030 H   0  0  0  0  0  0  0  0  0  0  0  0
   -0.3825   -1.4187    2.0779 H   0  0  0  0  0  0  0  0  0  0  0  0
   -0.6453    2.3562    0.2319 H   0  0  0  0  0  0  0  0  0  0  0  0
   -1.5025    3.3018    2.2638 H   0  0  0  0  0  0  0  0  0  0  0  0
    1.9918   -0.6530    0.6372 H   0  0  0  0  0  0  0  0  0  0  0  0
    1.8951   -0.4986   -1.1212 H   0  0  0  0  0  0  0  0  0  0  0  0
    1.9149    0.9604   -0.1225 H   0  0  0  0  0  0  0  0  0  0  0  0
   -5.4229    7.2733    4.3791 H   0  0  0  0  0  0  0  0  0  0  0  0
   -3.9872    8.0118    3.6523 H   0  0  0  0  0  0  0  0  0  0  0  0
   -5.0598    8.9672    4.6880 H   0  0  0  0  0  0  0  0  0  0  0  0
   -5.9429    4.1484    6.7979 H   0  0  0  0  0  0  0  0  0  0  0  0
   -4.8347    5.1512    7.7538 H   0  0  0  0  0  0  0  0  0  0  0  0
   -5.9778    5.8859    6.6071 H   0  0  0  0  0  0  0  0  0  0  0  0
   -0.5802    5.7883    5.6036 H   0  0  0  0  0  0  0  0  0  0  0  0
   -0.4433    6.6260    4.0561 H   0  0  0  0  0  0  0  0  0  0  0  0
   -0.7125    4.8885    4.0881 H   0  0  0  0  0  0  0  0  0  0  0  0
  1 27  1  0  0  0  0
  1  2  1  0  0  0  0
  2 30  1  0  0  0  0
  2  3  1  0  0  0  0
  3  4  1  0  0  0  0
  3  5  2  0  0  0  0
  4  6  1  0  0  0  0
  6 31  1  1  0  0  0
  6  7  1  0  0  0  0
  7 32  1  0  0  0  0
  7 34  1  0  0  0  0
  8  6  1  0  0  0  0
  8 35  1  1  0  0  0
  9  8  1  0  0  0  0
  9 36  1  1  0  0  0
 10 37  1  6  0  0  0
 10  9  1  0  0  0  0
 10 11  1  0  0  0  0
 10 23  1  0  0  0  0
 11 39  1  0  0  0  0
 11 38  1  0  0  0  0
 12 13  1  0  0  0  0
 12 11  1  0  0  0  0
 13 40  1  0  0  0  0
 13 41  1  0  0  0  0
 14 13  1  0  0  0  0
 15 14  1  0  0  0  0
 15 42  1  0  0  0  0
 16 15  2  0  0  0  0
 17 18  2  0  0  0  0
 17 16  1  0  0  0  0
 18 19  1  0  0  0  0
 19 45  1  0  0  0  0
 19 14  2  0  0  0  0
 20 17  1  0  0  0  0
 21 20  1  0  0  0  0
 21 48  1  0  0  0  0
 21 46  1  0  0  0  0
 22 51  1  0  0  0  0
 22  8  1  0  0  0  0
 23 52  1  0  0  0  0
 23 53  1  0  0  0  0
 24 25  1  0  0  0  0
 24  9  1  0  0  0  0
 25 55  1  0  0  0  0
 26  1  1  0  0  0  0
 28  1  1  0  0  0  0
 29  2  1  0  0  0  0
 33  7  1  0  0  0  0
 43 16  1  0  0  0  0
 44 18  1  0  0  0  0
 47 21  1  0  0  0  0
 49 22  1  0  0  0  0
 50 22  1  0  0  0  0
 54 23  1  0  0  0  0
 56 25  1  0  0  0  0
 57 25  1  0  0  0  0
M  END
$$$$
