
 OpenBabel11301904013D

 76 79  0  0  1  0  0  0  0  0999 V2000
   -3.5336    2.0870    3.7126 C   0  0  1  0  0  0  0  0  0  0  0  0
   -2.5850    1.0881    2.9406 C   0  0  2  0  0  0  0  0  0  0  0  0
   -1.3756    0.8506    3.8969 C   0  0  2  0  0  0  0  0  0  0  0  0
   -1.5741    1.8156    5.1082 C   0  0  0  0  0  0  0  0  0  0  0  0
   -2.5558    2.8760    4.6165 C   0  0  0  0  0  0  0  0  0  0  0  0
   -1.5493   -0.5488    4.2646 C   0  0  0  0  0  0  0  0  0  0  0  0
   -2.3554   -1.2650    3.4879 O   0  0  0  0  0  0  0  0  0  0  0  0
   -3.1283   -0.3648    2.6883 C   0  0  2  0  0  0  0  0  0  0  0  0
   -0.9339   -1.1604    5.2888 C   0  0  0  0  0  0  0  0  0  0  0  0
   -3.2013   -0.8726    1.2905 C   0  0  0  0  0  0  0  0  0  0  0  0
   -4.3821   -0.7805    0.6374 C   0  0  0  0  0  0  0  0  0  0  0  0
   -2.0939   -1.6143    0.6342 C   0  0  0  0  0  0  0  0  0  0  0  0
   -0.8649   -0.8911    0.3692 O   0  0  0  0  0  0  0  0  0  0  0  0
    0.4966   -1.6420   -0.2670 Si  0  0  0  0  0  0  0  0  0  0  0  0
    1.5584   -0.3620   -0.7003 C   0  0  0  0  0  0  0  0  0  0  0  0
    0.0515   -2.5943   -1.7324 C   0  0  0  0  0  0  0  0  0  0  0  0
    1.2277   -2.6016    0.9586 C   0  0  0  0  0  0  0  0  0  0  0  0
   -0.6817   -1.6363   -2.7424 C   0  0  0  0  0  0  0  0  0  0  0  0
   -0.8415   -3.8520   -1.3745 C   0  0  0  0  0  0  0  0  0  0  0  0
    1.2645   -3.1593   -2.5632 C   0  0  0  0  0  0  0  0  0  0  0  0
    2.8825   -0.5952   -1.1537 C   0  0  0  0  0  0  0  0  0  0  0  0
    3.7222    0.4600   -1.5493 C   0  0  0  0  0  0  0  0  0  0  0  0
    3.2684    1.7848   -1.4760 C   0  0  0  0  0  0  0  0  0  0  0  0
    1.9764    2.0479   -0.9952 C   0  0  0  0  0  0  0  0  0  0  0  0
    1.1308    0.9880   -0.6209 C   0  0  0  0  0  0  0  0  0  0  0  0
    2.3852   -3.3944    0.7333 C   0  0  0  0  0  0  0  0  0  0  0  0
    2.9879   -4.1496    1.7572 C   0  0  0  0  0  0  0  0  0  0  0  0
    2.4422   -4.1411    3.0487 C   0  0  0  0  0  0  0  0  0  0  0  0
    1.3041   -3.3653    3.3103 C   0  0  0  0  0  0  0  0  0  0  0  0
    0.7256   -2.5972    2.2837 C   0  0  0  0  0  0  0  0  0  0  0  0
    0.0100    1.0910    3.2123 C   0  0  0  0  0  0  0  0  0  0  0  0
   -2.2627    1.5522    2.0030 H   0  0  0  0  0  0  0  0  0  0  0  0
   -4.4600    3.0628    2.8927 C   0  0  0  0  0  0  0  0  0  0  0  0
   -5.3580    2.3209    1.8729 C   0  0  0  0  0  0  0  0  0  0  0  0
   -5.3648    3.9331    3.8232 C   0  0  0  0  0  0  0  0  0  0  0  0
   -4.1792    1.5056    4.3812 H   0  0  0  0  0  0  0  0  0  0  0  0
   -2.0301    1.3089    5.9668 H   0  0  0  0  0  0  0  0  0  0  0  0
   -0.6437    2.2789    5.4489 H   0  0  0  0  0  0  0  0  0  0  0  0
   -3.0566    3.3397    5.4706 H   0  0  0  0  0  0  0  0  0  0  0  0
   -2.0270    3.6492    4.0489 H   0  0  0  0  0  0  0  0  0  0  0  0
   -4.1244   -0.4369    3.1408 H   0  0  0  0  0  0  0  0  0  0  0  0
   -0.3079   -0.6663    5.8787 H   0  0  0  0  0  0  0  0  0  0  0  0
   -1.0987   -2.1210    5.4738 H   0  0  0  0  0  0  0  0  0  0  0  0
   -4.4988   -1.1114   -0.2913 H   0  0  0  0  0  0  0  0  0  0  0  0
   -5.1881   -0.4052    1.0710 H   0  0  0  0  0  0  0  0  0  0  0  0
   -2.4447   -1.9824   -0.3224 H   0  0  0  0  0  0  0  0  0  0  0  0
   -1.8949   -2.4977    1.2379 H   0  0  0  0  0  0  0  0  0  0  0  0
   -0.0050   -0.8584   -3.1131 H   0  0  0  0  0  0  0  0  0  0  0  0
   -1.5402   -1.1329   -2.2979 H   0  0  0  0  0  0  0  0  0  0  0  0
   -1.0434   -2.1931   -3.6116 H   0  0  0  0  0  0  0  0  0  0  0  0
   -1.8960   -3.6810   -1.5878 H   0  0  0  0  0  0  0  0  0  0  0  0
   -0.7448   -4.1431   -0.3266 H   0  0  0  0  0  0  0  0  0  0  0  0
   -0.5834   -4.7411   -1.9538 H   0  0  0  0  0  0  0  0  0  0  0  0
    0.9094   -3.6713   -3.4611 H   0  0  0  0  0  0  0  0  0  0  0  0
    1.8287   -3.9037   -2.0111 H   0  0  0  0  0  0  0  0  0  0  0  0
    1.9365   -2.3794   -2.9146 H   0  0  0  0  0  0  0  0  0  0  0  0
    3.2669   -1.5336   -1.2188 H   0  0  0  0  0  0  0  0  0  0  0  0
    4.6641    0.2638   -1.8924 H   0  0  0  0  0  0  0  0  0  0  0  0
    3.8777    2.5527   -1.7694 H   0  0  0  0  0  0  0  0  0  0  0  0
    1.6492    3.0121   -0.9205 H   0  0  0  0  0  0  0  0  0  0  0  0
    0.1954    1.2298   -0.2928 H   0  0  0  0  0  0  0  0  0  0  0  0
    2.8383   -3.4350   -0.1705 H   0  0  0  0  0  0  0  0  0  0  0  0
    3.8256   -4.7053    1.5634 H   0  0  0  0  0  0  0  0  0  0  0  0
    2.8750   -4.6921    3.7962 H   0  0  0  0  0  0  0  0  0  0  0  0
    0.8992   -3.3561    4.2486 H   0  0  0  0  0  0  0  0  0  0  0  0
   -0.0637   -2.0203    2.5372 H   0  0  0  0  0  0  0  0  0  0  0  0
    0.8305    0.7567    3.9223 H   0  0  0  0  0  0  0  0  0  0  0  0
    0.0439    2.1611    2.8370 H   0  0  0  0  0  0  0  0  0  0  0  0
    0.1024    0.4615    2.3303 H   0  0  0  0  0  0  0  0  0  0  0  0
   -3.8276    3.7489    2.3195 H   0  0  0  0  0  0  0  0  0  0  0  0
   -4.7407    1.9168    1.0736 H   0  0  0  0  0  0  0  0  0  0  0  0
   -6.0809    2.9968    1.4118 H   0  0  0  0  0  0  0  0  0  0  0  0
   -5.9068    1.5158    2.3646 H   0  0  0  0  0  0  0  0  0  0  0  0
   -5.9830    3.2986    4.4620 H   0  0  0  0  0  0  0  0  0  0  0  0
   -6.0241    4.5776    3.2381 H   0  0  0  0  0  0  0  0  0  0  0  0
   -4.7682    4.5869    4.4597 H   0  0  0  0  0  0  0  0  0  0  0  0
  1  2  1  6  0  0  0
  1 36  1  0  0  0  0
  1  5  1  0  0  0  0
  2  8  1  6  0  0  0
  3  2  1  6  0  0  0
  3  6  1  0  0  0  0
  3  4  1  0  0  0  0
  4 38  1  0  0  0  0
  4 37  1  0  0  0  0
  5  4  1  0  0  0  0
  5 39  1  0  0  0  0
  6  9  2  0  0  0  0
  7  6  1  0  0  0  0
  8 41  1  1  0  0  0
  8  7  1  0  0  0  0
  9 43  1  0  0  0  0
  9 42  1  0  0  0  0
 10  8  1  0  0  0  0
 11 45  1  0  0  0  0
 11 10  2  0  0  0  0
 12 47  1  0  0  0  0
 12 10  1  0  0  0  0
 13 12  1  0  0  0  0
 14 13  1  0  0  0  0
 14 17  1  0  0  0  0
 15 25  1  0  0  0  0
 15 14  1  0  0  0  0
 16 19  1  0  0  0  0
 16 14  1  0  0  0  0
 17 30  1  0  0  0  0
 18 49  1  0  0  0  0
 18 16  1  0  0  0  0
 19 52  1  0  0  0  0
 20 55  1  0  0  0  0
 20 16  1  0  0  0  0
 21 15  2  0  0  0  0
 22 23  2  0  0  0  0
 22 21  1  0  0  0  0
 23 24  1  0  0  0  0
 24 60  1  0  0  0  0
 24 25  2  0  0  0  0
 25 61  1  0  0  0  0
 26 17  2  0  0  0  0
 26 27  1  0  0  0  0
 27 28  2  0  0  0  0
 28 29  1  0  0  0  0
 28 64  1  0  0  0  0
 29 65  1  0  0  0  0
 30 66  1  0  0  0  0
 30 29  2  0  0  0  0
 31  3  1  0  0  0  0
 31 67  1  0  0  0  0
 32  2  1  0  0  0  0
 33  1  1  0  0  0  0
 33 35  1  0  0  0  0
 34 73  1  0  0  0  0
 34 33  1  0  0  0  0
 35 76  1  0  0  0  0
 35 74  1  0  0  0  0
 40  5  1  0  0  0  0
 44 11  1  0  0  0  0
 46 12  1  0  0  0  0
 48 18  1  0  0  0  0
 50 18  1  0  0  0  0
 51 19  1  0  0  0  0
 53 19  1  0  0  0  0
 54 20  1  0  0  0  0
 56 20  1  0  0  0  0
 57 21  1  0  0  0  0
 58 22  1  0  0  0  0
 59 23  1  0  0  0  0
 62 26  1  0  0  0  0
 63 27  1  0  0  0  0
 68 31  1  0  0  0  0
 69 31  1  0  0  0  0
 70 33  1  0  0  0  0
 71 34  1  0  0  0  0
 72 34  1  0  0  0  0
 75 35  1  0  0  0  0
M  END
$$$$
