
 OpenBabel11301904023D

 76 79  0  0  1  0  0  0  0  0999 V2000
   -4.9459   -2.6559    3.1942 C   0  0  1  0  0  0  0  0  0  0  0  0
   -4.0432   -1.4813    3.6813 C   0  0  1  0  0  0  0  0  0  0  0  0
   -5.0324   -0.3671    4.1088 C   0  0  1  0  0  0  0  0  0  0  0  0
   -6.3254   -0.6336    3.2603 C   0  0  0  0  0  0  0  0  0  0  0  0
   -6.0963   -1.9355    2.4599 C   0  0  0  0  0  0  0  0  0  0  0  0
   -4.3080    0.8328    3.7128 C   0  0  0  0  0  0  0  0  0  0  0  0
   -3.0889    0.6418    3.2036 O   0  0  0  0  0  0  0  0  0  0  0  0
   -3.0127   -0.7250    2.7745 C   0  0  2  0  0  0  0  0  0  0  0  0
   -4.7789    2.0832    3.8249 C   0  0  0  0  0  0  0  0  0  0  0  0
   -3.0506   -0.8186    1.2971 C   0  0  0  0  0  0  0  0  0  0  0  0
   -3.8799   -0.0612    0.5500 C   0  0  0  0  0  0  0  0  0  0  0  0
   -2.1012   -1.6870    0.5933 C   0  0  0  0  0  0  0  0  0  0  0  0
   -1.0532   -0.8532    0.0509 O   0  0  0  0  0  0  0  0  0  0  0  0
    0.3939   -1.5129   -0.4148 Si  0  0  0  0  0  0  0  0  0  0  0  0
    1.4179   -0.1828   -0.7620 C   0  0  0  0  0  0  0  0  0  0  0  0
    0.1339   -2.4809   -1.9014 C   0  0  0  0  0  0  0  0  0  0  0  0
    1.0382   -2.3305    0.9438 C   0  0  0  0  0  0  0  0  0  0  0  0
   -0.8869   -1.7309   -2.8282 C   0  0  0  0  0  0  0  0  0  0  0  0
   -0.4410   -3.9156   -1.6358 C   0  0  0  0  0  0  0  0  0  0  0  0
    1.4550   -2.6442   -2.7323 C   0  0  0  0  0  0  0  0  0  0  0  0
    2.8270   -0.3118   -0.6649 C   0  0  0  0  0  0  0  0  0  0  0  0
    3.6691    0.7934   -0.8928 C   0  0  0  0  0  0  0  0  0  0  0  0
    3.1186    2.0384   -1.2416 C   0  0  0  0  0  0  0  0  0  0  0  0
    1.7255    2.1746   -1.3662 C   0  0  0  0  0  0  0  0  0  0  0  0
    0.8804    1.0760   -1.1228 C   0  0  0  0  0  0  0  0  0  0  0  0
    1.8433   -3.4917    0.8588 C   0  0  0  0  0  0  0  0  0  0  0  0
    2.3327   -4.1208    2.0175 C   0  0  0  0  0  0  0  0  0  0  0  0
    2.0715   -3.5728    3.2839 C   0  0  0  0  0  0  0  0  0  0  0  0
    1.3209   -2.3912    3.3890 C   0  0  0  0  0  0  0  0  0  0  0  0
    0.8269   -1.7668    2.2291 C   0  0  0  0  0  0  0  0  0  0  0  0
   -5.3072   -0.3814    5.6525 C   0  0  0  0  0  0  0  0  0  0  0  0
   -3.4836   -1.8417    4.5532 H   0  0  0  0  0  0  0  0  0  0  0  0
   -4.2826   -3.8614    2.4424 C   0  0  0  0  0  0  0  0  0  0  0  0
   -3.0635   -4.4426    3.2169 C   0  0  0  0  0  0  0  0  0  0  0  0
   -5.3042   -5.0020    2.1597 C   0  0  0  0  0  0  0  0  0  0  0  0
   -5.3923   -3.0907    4.0991 H   0  0  0  0  0  0  0  0  0  0  0  0
   -7.1973   -0.7680    3.9072 H   0  0  0  0  0  0  0  0  0  0  0  0
   -6.5597    0.1865    2.5764 H   0  0  0  0  0  0  0  0  0  0  0  0
   -7.0055   -2.5429    2.4383 H   0  0  0  0  0  0  0  0  0  0  0  0
   -5.8153   -1.7151    1.4298 H   0  0  0  0  0  0  0  0  0  0  0  0
   -2.0158   -1.0417    3.0962 H   0  0  0  0  0  0  0  0  0  0  0  0
   -5.6804    2.2616    4.2004 H   0  0  0  0  0  0  0  0  0  0  0  0
   -4.2293    2.8546    3.5294 H   0  0  0  0  0  0  0  0  0  0  0  0
   -3.8794   -0.1187   -0.4430 H   0  0  0  0  0  0  0  0  0  0  0  0
   -4.5185    0.5748    0.9614 H   0  0  0  0  0  0  0  0  0  0  0  0
   -2.6228   -2.2148   -0.2076 H   0  0  0  0  0  0  0  0  0  0  0  0
   -1.7078   -2.4459    1.2712 H   0  0  0  0  0  0  0  0  0  0  0  0
   -0.5508   -0.7190   -3.0621 H   0  0  0  0  0  0  0  0  0  0  0  0
   -1.8728   -1.6610   -2.3682 H   0  0  0  0  0  0  0  0  0  0  0  0
   -1.0136   -2.2581   -3.7776 H   0  0  0  0  0  0  0  0  0  0  0  0
   -1.3429   -3.8918   -1.0317 H   0  0  0  0  0  0  0  0  0  0  0  0
    0.2748   -4.5630   -1.1378 H   0  0  0  0  0  0  0  0  0  0  0  0
   -0.6909   -4.4090   -2.5756 H   0  0  0  0  0  0  0  0  0  0  0  0
    1.2872   -3.2810   -3.6050 H   0  0  0  0  0  0  0  0  0  0  0  0
    2.2542   -3.1021   -2.1513 H   0  0  0  0  0  0  0  0  0  0  0  0
    1.8175   -1.6817   -3.1015 H   0  0  0  0  0  0  0  0  0  0  0  0
    3.2621   -1.2062   -0.4193 H   0  0  0  0  0  0  0  0  0  0  0  0
    4.6837    0.6917   -0.8010 H   0  0  0  0  0  0  0  0  0  0  0  0
    3.7294    2.8411   -1.4073 H   0  0  0  0  0  0  0  0  0  0  0  0
    1.3256    3.0775   -1.6294 H   0  0  0  0  0  0  0  0  0  0  0  0
   -0.1291    1.2133   -1.2114 H   0  0  0  0  0  0  0  0  0  0  0  0
    2.1061   -3.8916   -0.0379 H   0  0  0  0  0  0  0  0  0  0  0  0
    2.8924   -4.9712    1.9342 H   0  0  0  0  0  0  0  0  0  0  0  0
    2.4398   -4.0228    4.1238 H   0  0  0  0  0  0  0  0  0  0  0  0
    1.1431   -1.9783    4.3072 H   0  0  0  0  0  0  0  0  0  0  0  0
    0.3126   -0.8874    2.3406 H   0  0  0  0  0  0  0  0  0  0  0  0
   -6.1186    0.3761    5.8886 H   0  0  0  0  0  0  0  0  0  0  0  0
   -4.3194   -0.2835    6.2062 H   0  0  0  0  0  0  0  0  0  0  0  0
   -5.7147   -1.3560    5.9325 H   0  0  0  0  0  0  0  0  0  0  0  0
   -3.9314   -3.5204    1.4710 H   0  0  0  0  0  0  0  0  0  0  0  0
   -2.2912   -3.6870    3.3577 H   0  0  0  0  0  0  0  0  0  0  0  0
   -2.6152   -5.2680    2.6600 H   0  0  0  0  0  0  0  0  0  0  0  0
   -3.3690   -4.8096    4.1997 H   0  0  0  0  0  0  0  0  0  0  0  0
   -5.7183   -5.3910    3.0922 H   0  0  0  0  0  0  0  0  0  0  0  0
   -4.8229   -5.8230    1.6252 H   0  0  0  0  0  0  0  0  0  0  0  0
   -6.1236   -4.6417    1.5380 H   0  0  0  0  0  0  0  0  0  0  0  0
  1  2  1  1  0  0  0
  1 36  1  0  0  0  0
  2  8  1  6  0  0  0
  2 32  1  0  0  0  0
  3  2  1  6  0  0  0
  3 31  1  0  0  0  0
  4 37  1  0  0  0  0
  4  3  1  0  0  0  0
  5  1  1  0  0  0  0
  5  4  1  0  0  0  0
  6  9  2  0  0  0  0
  6  3  1  0  0  0  0
  7  6  1  0  0  0  0
  8 41  1  1  0  0  0
  8  7  1  0  0  0  0
  9 42  1  0  0  0  0
 10  8  1  0  0  0  0
 11 45  1  0  0  0  0
 11 10  2  0  0  0  0
 12 47  1  0  0  0  0
 12 10  1  0  0  0  0
 13 12  1  0  0  0  0
 14 13  1  0  0  0  0
 14 17  1  0  0  0  0
 15 21  1  0  0  0  0
 15 14  1  0  0  0  0
 16 19  1  0  0  0  0
 16 14  1  0  0  0  0
 17 30  1  0  0  0  0
 18 49  1  0  0  0  0
 18 16  1  0  0  0  0
 19 52  1  0  0  0  0
 19 51  1  0  0  0  0
 20 55  1  0  0  0  0
 20 16  1  0  0  0  0
 21 57  1  0  0  0  0
 22 58  1  0  0  0  0
 22 21  2  0  0  0  0
 23 22  1  0  0  0  0
 24 23  2  0  0  0  0
 24 25  1  0  0  0  0
 25 15  2  0  0  0  0
 26 17  2  0  0  0  0
 26 27  1  0  0  0  0
 27 28  2  0  0  0  0
 28 29  1  0  0  0  0
 28 64  1  0  0  0  0
 29 65  1  0  0  0  0
 30 66  1  0  0  0  0
 30 29  2  0  0  0  0
 31 67  1  0  0  0  0
 31 69  1  0  0  0  0
 31 68  1  0  0  0  0
 33  1  1  0  0  0  0
 33 34  1  0  0  0  0
 34 71  1  0  0  0  0
 34 73  1  0  0  0  0
 35 33  1  0  0  0  0
 35 74  1  0  0  0  0
 38  4  1  0  0  0  0
 39  5  1  0  0  0  0
 40  5  1  0  0  0  0
 43  9  1  0  0  0  0
 44 11  1  0  0  0  0
 46 12  1  0  0  0  0
 48 18  1  0  0  0  0
 50 18  1  0  0  0  0
 53 19  1  0  0  0  0
 54 20  1  0  0  0  0
 56 20  1  0  0  0  0
 59 23  1  0  0  0  0
 60 24  1  0  0  0  0
 61 25  1  0  0  0  0
 62 26  1  0  0  0  0
 63 27  1  0  0  0  0
 70 33  1  0  0  0  0
 72 34  1  0  0  0  0
 75 35  1  0  0  0  0
 76 35  1  0  0  0  0
M  END
$$$$
