
 OpenBabel11301904113D

 53 54  0  0  1  0  0  0  0  0999 V2000
    3.1549   -1.7901    0.4199 C   0  0  0  0  0  0  0  0  0  0  0  0
    2.0662   -2.6293    0.4866 C   0  0  0  0  0  0  0  0  0  0  0  0
    0.8053   -2.1729    0.6516 C   0  0  0  0  0  0  0  0  0  0  0  0
    0.5529   -0.7281    0.7907 C   0  0  0  0  0  0  0  0  0  0  0  0
    1.7180    0.2321    0.3547 C   0  0  1  0  0  0  0  0  0  0  0  0
   -0.3430   -0.4561    0.2272 H   0  0  0  0  0  0  0  0  0  0  0  0
    0.3309   -0.5609    1.8461 H   0  0  0  0  0  0  0  0  0  0  0  0
    4.3197   -2.2465    0.3746 O   0  0  0  0  0  0  0  0  0  0  0  0
    2.9884   -0.4427    0.3842 O   0  0  0  0  0  0  0  0  0  0  0  0
    2.2313   -3.6062    0.4043 H   0  0  0  0  0  0  0  0  0  0  0  0
   -0.3111   -3.1480    0.7087 C   0  0  1  0  0  0  0  0  0  0  0  0
   -0.9386   -3.3651   -0.6969 C   0  0  0  0  0  0  0  0  0  0  0  0
    0.0784   -3.8288   -1.6109 O   0  0  0  0  0  0  0  0  0  0  0  0
   -1.3864   -2.8171    1.7815 C   0  0  0  0  0  0  0  0  0  0  0  0
    0.0710   -4.1290    1.0146 H   0  0  0  0  0  0  0  0  0  0  0  0
   -0.3485   -3.9223   -2.9789 C   0  0  0  0  0  0  0  0  0  0  0  0
    2.8220   -5.3997   -5.5090 C   0  0  0  0  0  0  0  0  0  0  0  0
    2.6811   -4.0163   -5.2866 C   0  0  0  0  0  0  0  0  0  0  0  0
    1.6683   -3.5368   -4.4364 C   0  0  0  0  0  0  0  0  0  0  0  0
    0.7745   -4.4306   -3.8014 C   0  0  0  0  0  0  0  0  0  0  0  0
    0.9655   -5.8204   -3.9824 C   0  0  0  0  0  0  0  0  0  0  0  0
    1.9772   -6.3015   -4.8334 C   0  0  0  0  0  0  0  0  0  0  0  0
    3.3078   -3.3552   -5.7514 H   0  0  0  0  0  0  0  0  0  0  0  0
    1.5831   -2.5287   -4.2933 H   0  0  0  0  0  0  0  0  0  0  0  0
    0.3617   -6.4933   -3.5062 H   0  0  0  0  0  0  0  0  0  0  0  0
    2.0896   -7.3091   -4.9687 H   0  0  0  0  0  0  0  0  0  0  0  0
    3.7827   -5.8648   -6.3654 O   0  0  0  0  0  0  0  0  0  0  0  0
    1.7760    1.5597    1.1950 C   0  0  2  0  0  0  0  0  0  0  0  0
    3.0014    2.3411    0.9719 C   0  0  0  0  0  0  0  0  0  0  0  0
    4.2050    2.1641    1.5523 C   0  0  0  0  0  0  0  0  0  0  0  0
    1.5590    0.4981   -0.6955 H   0  0  0  0  0  0  0  0  0  0  0  0
    0.5176    2.4519    0.9625 C   0  0  0  0  0  0  0  0  0  0  0  0
    1.7409    1.2997    2.2540 H   0  0  0  0  0  0  0  0  0  0  0  0
    2.9443    3.0893    0.3202 H   0  0  0  0  0  0  0  0  0  0  0  0
    4.5945    1.1241    2.4869 C   0  0  0  0  0  0  0  0  0  0  0  0
    5.6693    3.4919    1.0970 I   0  0  0  0  0  0  0  0  0  0  0  0
    3.3009   -5.9865   -7.7168 C   0  0  0  0  0  0  0  0  0  0  0  0
    2.4687   -6.6924   -7.7847 H   0  0  0  0  0  0  0  0  0  0  0  0
    4.1147   -6.3643   -8.3349 H   0  0  0  0  0  0  0  0  0  0  0  0
    2.9898   -5.0194   -8.1210 H   0  0  0  0  0  0  0  0  0  0  0  0
   -1.2072   -4.5965   -3.0714 H   0  0  0  0  0  0  0  0  0  0  0  0
   -0.6536   -2.9355   -3.3434 H   0  0  0  0  0  0  0  0  0  0  0  0
   -1.3856   -2.4310   -1.0465 H   0  0  0  0  0  0  0  0  0  0  0  0
   -1.7313   -4.1170   -0.6338 H   0  0  0  0  0  0  0  0  0  0  0  0
   -1.9447   -1.9191    1.5142 H   0  0  0  0  0  0  0  0  0  0  0  0
   -2.0940   -3.6422    1.8781 H   0  0  0  0  0  0  0  0  0  0  0  0
   -0.9148   -2.6652    2.7551 H   0  0  0  0  0  0  0  0  0  0  0  0
   -0.3945    1.9193    1.2398 H   0  0  0  0  0  0  0  0  0  0  0  0
    0.4409    2.7477   -0.0869 H   0  0  0  0  0  0  0  0  0  0  0  0
    0.5724    3.3550    1.5773 H   0  0  0  0  0  0  0  0  0  0  0  0
    5.2852    0.4446    1.9851 H   0  0  0  0  0  0  0  0  0  0  0  0
    3.7609    0.5407    2.8688 H   0  0  0  0  0  0  0  0  0  0  0  0
    5.1056    1.5675    3.3414 H   0  0  0  0  0  0  0  0  0  0  0  0
  1  2  1  0  0  0  0
  2  3  2  0  0  0  0
  3 11  1  0  0  0  0
  3  4  1  0  0  0  0
  4  7  1  0  0  0  0
  5 31  1  6  0  0  0
  5  9  1  0  0  0  0
  5  4  1  0  0  0  0
  5 28  1  0  0  0  0
  6  4  1  0  0  0  0
  8  1  2  0  0  0  0
  9  1  1  0  0  0  0
 10  2  1  0  0  0  0
 11 15  1  1  0  0  0
 11 14  1  0  0  0  0
 12 44  1  0  0  0  0
 12 11  1  0  0  0  0
 13 12  1  0  0  0  0
 14 46  1  0  0  0  0
 14 47  1  0  0  0  0
 16 13  1  0  0  0  0
 17 18  2  0  0  0  0
 17 22  1  0  0  0  0
 18 19  1  0  0  0  0
 19 24  1  0  0  0  0
 19 20  2  0  0  0  0
 20 16  1  0  0  0  0
 21 20  1  0  0  0  0
 21 25  1  0  0  0  0
 22 21  2  0  0  0  0
 23 18  1  0  0  0  0
 26 22  1  0  0  0  0
 27 17  1  0  0  0  0
 28 33  1  1  0  0  0
 29 28  1  0  0  0  0
 29 30  2  0  0  0  0
 30 35  1  0  0  0  0
 32 28  1  0  0  0  0
 32 48  1  0  0  0  0
 32 50  1  0  0  0  0
 34 29  1  0  0  0  0
 35 52  1  0  0  0  0
 35 53  1  0  0  0  0
 36 30  1  0  0  0  0
 37 27  1  0  0  0  0
 38 37  1  0  0  0  0
 39 37  1  0  0  0  0
 40 37  1  0  0  0  0
 41 16  1  0  0  0  0
 42 16  1  0  0  0  0
 43 12  1  0  0  0  0
 45 14  1  0  0  0  0
 49 32  1  0  0  0  0
 51 35  1  0  0  0  0
M  END
$$$$
