S13_1
     RDKit          3D

 30 31  0  0  1  0  0  0  0  0999 V2000
   -1.5457    0.9482    0.6293 C   0  0  0  0  0  0  0  0  0  0  0  0
   -0.1099    1.1407    1.2032 C   0  0  1  0  0  0  0  0  0  0  0  0
    1.0601    1.1645    0.1746 C   0  0  0  0  0  0  0  0  0  0  0  0
    1.5188   -0.2395   -0.3569 C   0  0  0  0  0  0  0  0  0  0  0  0
    0.2462   -1.0337   -0.5307 C   0  0  0  0  0  0  0  0  0  0  0  0
   -0.1762   -2.0218    0.2645 C   0  0  0  0  0  0  0  0  0  0  0  0
   -1.5767   -1.6137    0.4178 C   0  0  0  0  0  0  0  0  0  0  0  0
   -1.7977   -0.2825   -0.2687 C   0  0  2  0  0  0  0  0  0  0  0  0
   -2.3806   -2.2345    1.0949 O   0  0  0  0  0  0  0  0  0  0  0  0
   -0.7409   -0.3381   -1.2375 O   0  0  0  0  0  0  0  0  0  0  0  0
    2.5063   -0.8635    0.6496 C   0  0  0  0  0  0  0  0  0  0  0  0
    2.2400   -0.0849   -1.7050 C   0  0  0  0  0  0  0  0  0  0  0  0
   -0.1013    2.3931    1.9010 O   0  0  0  0  0  0  0  0  0  0  0  0
   -2.2558    0.9442    1.4669 H   0  0  0  0  0  0  0  0  0  0  0  0
   -1.7823    1.8522    0.0504 H   0  0  0  0  0  0  0  0  0  0  0  0
    0.0813    0.3787    1.9660 H   0  0  0  0  0  0  0  0  0  0  0  0
    1.9219    1.6791    0.6217 H   0  0  0  0  0  0  0  0  0  0  0  0
    0.7590    1.8092   -0.6636 H   0  0  0  0  0  0  0  0  0  0  0  0
    0.3395   -2.5978    1.0112 H   0  0  0  0  0  0  0  0  0  0  0  0
    2.0774   -0.9416    1.6546 H   0  0  0  0  0  0  0  0  0  0  0  0
    2.8123   -1.8682    0.3352 H   0  0  0  0  0  0  0  0  0  0  0  0
    3.4151   -0.2561    0.7342 H   0  0  0  0  0  0  0  0  0  0  0  0
    3.1314    0.5446   -1.6042 H   0  0  0  0  0  0  0  0  0  0  0  0
    1.5957    0.3794   -2.4607 H   0  0  0  0  0  0  0  0  0  0  0  0
    2.5588   -1.0578   -2.0969 H   0  0  0  0  0  0  0  0  0  0  0  0
   -0.2052    3.1046    1.2454 H   0  0  0  0  0  0  0  0  0  0  0  0
   -3.1399   -0.2336   -0.9791 C   0  0  0  0  0  0  0  0  0  0  0  0
   -3.9691   -0.2031   -0.2650 H   0  0  0  0  0  0  0  0  0  0  0  0
   -3.2050    0.6437   -1.6319 H   0  0  0  0  0  0  0  0  0  0  0  0
   -3.2777   -1.1119   -1.6205 H   0  0  0  0  0  0  0  0  0  0  0  0
  1  2  1  0
  1  8  1  0
  1 14  1  0
  1 15  1  0
  2  3  1  0
  2 13  1  0
  2 16  1  1
  3  4  1  0
  3 17  1  0
  3 18  1  0
  4  5  1  0
  4 11  1  0
  4 12  1  0
  5  6  2  0
  5 10  1  0
  6  7  1  0
  6 19  1  0
  7  8  1  0
  7  9  2  0
  8 10  1  0
  8 27  1  6
 11 20  1  0
 11 21  1  0
 11 22  1  0
 12 23  1  0
 12 24  1  0
 12 25  1  0
 13 26  1  0
 27 28  1  0
 27 29  1  0
 27 30  1  0
M  END
$$$$
