S25
     RDKit          3D

 46 49  0  0  1  0  0  0  0  0999 V2000
   -0.6999   -0.3159    0.3003 C   0  0  0  0  0  0  0  0  0  0  0  0
    0.6371   -0.4771   -0.3421 C   0  0  0  0  0  0  0  0  0  0  0  0
    0.7700   -1.3484   -1.4536 C   0  0  0  0  0  0  0  0  0  0  0  0
    2.0114   -1.5070   -2.0664 C   0  0  0  0  0  0  0  0  0  0  0  0
    3.1224   -0.8115   -1.5909 C   0  0  0  0  0  0  0  0  0  0  0  0
    3.0287    0.0598   -0.4933 C   0  0  0  0  0  0  0  0  0  0  0  0
    1.7774    0.2367    0.1488 C   0  0  0  0  0  0  0  0  0  0  0  0
   -1.6162    0.6885   -0.1502 C   0  0  0  0  0  0  0  0  0  0  0  0
   -2.8886    0.8036    0.4734 C   0  0  0  0  0  0  0  0  0  0  0  0
   -3.1955   -0.0587    1.5461 C   0  0  0  0  0  0  0  0  0  0  0  0
   -2.2979   -1.0330    1.9848 C   0  0  0  0  0  0  0  0  0  0  0  0
   -1.0605   -1.1776    1.3643 C   0  0  0  0  0  0  0  0  0  0  0  0
   -1.3052    1.5934   -1.2004 C   0  0  0  0  0  0  0  0  0  0  0  0
   -2.1946    2.5816   -1.6243 C   0  0  0  0  0  0  0  0  0  0  0  0
   -3.4271    2.6724   -1.0148 C   0  0  0  0  0  0  0  0  0  0  0  0
   -3.7844    1.7917    0.0045 C   0  0  0  0  0  0  0  0  0  0  0  0
    4.1492    0.7634   -0.0163 C   0  0  0  0  0  0  0  0  0  0  0  0
    4.0581    1.6296    1.0717 C   0  0  0  0  0  0  0  0  0  0  0  0
    2.8494    1.8185    1.7151 C   0  0  0  0  0  0  0  0  0  0  0  0
    1.7247    1.1270    1.2550 C   0  0  0  0  0  0  0  0  0  0  0  0
   -0.1176   -2.0979    1.7535 O   0  0  0  0  0  0  0  0  0  0  0  0
   -0.3769   -1.9862   -1.8632 O   0  0  0  0  0  0  0  0  0  0  0  0
    5.3765    0.6155   -0.6181 O   0  0  0  0  0  0  0  0  0  0  0  0
    5.1971    2.2754    1.4696 O   0  0  0  0  0  0  0  0  0  0  0  0
   -4.3070    3.6308   -1.4309 O   0  0  0  0  0  0  0  0  0  0  0  0
   -5.0603    1.9503    0.4953 O   0  0  0  0  0  0  0  0  0  0  0  0
    2.1556   -2.1623   -2.9180 H   0  0  0  0  0  0  0  0  0  0  0  0
    4.0810   -0.9531   -2.0881 H   0  0  0  0  0  0  0  0  0  0  0  0
   -4.1356    0.0274    2.0842 H   0  0  0  0  0  0  0  0  0  0  0  0
   -2.5894   -1.6524    2.8264 H   0  0  0  0  0  0  0  0  0  0  0  0
   -0.3424    1.5396   -1.7064 H   0  0  0  0  0  0  0  0  0  0  0  0
   -1.9237    3.2627   -2.4246 H   0  0  0  0  0  0  0  0  0  0  0  0
    2.7517    2.4862    2.5643 H   0  0  0  0  0  0  0  0  0  0  0  0
    0.7842    1.2902    1.7789 H   0  0  0  0  0  0  0  0  0  0  0  0
   -0.5628   -3.1921    2.5429 C   0  0  0  0  0  0  0  0  0  0  0  0
   -0.2796   -2.8774   -2.9648 C   0  0  0  0  0  0  0  0  0  0  0  0
    5.9701    1.1996   -0.1050 H   0  0  0  0  0  0  0  0  0  0  0  0
    4.9723    2.8397    2.2295 H   0  0  0  0  0  0  0  0  0  0  0  0
   -5.0830    3.5175   -0.8468 H   0  0  0  0  0  0  0  0  0  0  0  0
   -5.3585    1.0849    0.8201 H   0  0  0  0  0  0  0  0  0  0  0  0
   -0.7958   -2.8673    3.5618 H   0  0  0  0  0  0  0  0  0  0  0  0
   -1.4188   -3.6977    2.0832 H   0  0  0  0  0  0  0  0  0  0  0  0
    0.2566   -3.9147    2.6044 H   0  0  0  0  0  0  0  0  0  0  0  0
   -1.2743   -3.2971   -3.1435 H   0  0  0  0  0  0  0  0  0  0  0  0
    0.3963   -3.7096   -2.7421 H   0  0  0  0  0  0  0  0  0  0  0  0
    0.0257   -2.3495   -3.8742 H   0  0  0  0  0  0  0  0  0  0  0  0
  1  2  1  0
  1  8  2  0
  1 12  1  0
  2  7  1  0
  2  3  2  0
  3  4  1  0
  3 22  1  0
  4  5  2  0
  4 27  1  0
  5  6  1  0
  5 28  1  0
  6  7  2  0
  6 17  1  0
  7 20  1  0
  8  9  1  0
  8 13  1  0
  9 10  2  0
  9 16  1  0
 10 11  1  0
 10 29  1  0
 11 12  2  0
 11 30  1  0
 12 21  1  0
 13 14  2  0
 13 31  1  0
 14 15  1  0
 14 32  1  0
 15 16  2  0
 15 25  1  0
 16 26  1  0
 17 18  2  0
 17 23  1  0
 18 19  1  0
 18 24  1  0
 19 20  2  0
 19 33  1  0
 20 34  1  0
 21 35  1  0
 22 36  1  0
 23 37  1  0
 24 38  1  0
 25 39  1  0
 26 40  1  0
 35 41  1  0
 35 42  1  0
 35 43  1  0
 36 44  1  0
 36 45  1  0
 36 46  1  0
M  END
$$$$
