
 OpenBabel11301904113D

 51 51  0  0  1  0  0  0  0  0999 V2000
   -2.9613   -0.3857    2.2448 C   0  0  0  0  0  0  0  0  0  0  0  0
   -1.4561   -0.6837    1.9649 C   0  0  1  0  0  0  0  0  0  0  0  0
   -0.5486    0.2759    2.7829 C   0  0  0  0  0  0  0  0  0  0  0  0
   -1.0361   -0.6911    0.5279 C   0  0  0  0  0  0  0  0  0  0  0  0
    0.0106   -1.3246    0.2475 O   0  0  0  0  0  0  0  0  0  0  0  0
   -1.6828    0.0522   -0.5893 C   0  0  0  0  0  0  0  0  0  0  0  0
   -0.9392    1.3653   -0.9821 C   0  0  1  0  0  0  0  0  0  0  0  0
   -0.9619    2.2745    0.1179 O   0  0  0  0  0  0  0  0  0  0  0  0
   -1.4678    2.0890   -2.2741 C   0  0  2  0  0  0  0  0  0  0  0  0
   -2.8802    2.7249   -2.0844 C   0  0  0  0  0  0  0  0  0  0  0  0
   -1.4184    1.2325   -3.4687 C   0  0  0  0  0  0  0  0  0  0  0  0
   -0.3147    0.8131   -4.1191 C   0  0  0  0  0  0  0  0  0  0  0  0
    1.0611    1.1360   -3.7876 C   0  0  0  0  0  0  0  0  0  0  0  0
   -0.5726   -0.4381   -5.6938 I   0  0  0  0  0  0  0  0  0  0  0  0
   -6.8337   -4.9993   -0.0223 C   0  0  0  0  0  0  0  0  0  0  0  0
   -7.3098   -4.2411    1.0646 C   0  0  0  0  0  0  0  0  0  0  0  0
   -6.4299   -3.4246    1.7980 C   0  0  0  0  0  0  0  0  0  0  0  0
   -5.0614   -3.3429    1.4454 C   0  0  0  0  0  0  0  0  0  0  0  0
   -4.6031   -4.0717    0.3236 C   0  0  0  0  0  0  0  0  0  0  0  0
   -5.4806   -4.8974   -0.4037 C   0  0  0  0  0  0  0  0  0  0  0  0
   -8.2962   -4.2931    1.3318 H   0  0  0  0  0  0  0  0  0  0  0  0
   -6.7961   -2.8936    2.5929 H   0  0  0  0  0  0  0  0  0  0  0  0
   -3.6225   -4.0166    0.0368 H   0  0  0  0  0  0  0  0  0  0  0  0
   -5.1296   -5.4336   -1.2007 H   0  0  0  0  0  0  0  0  0  0  0  0
   -7.6791   -5.8319   -0.7017 O   0  0  0  0  0  0  0  0  0  0  0  0
   -7.7355   -7.1449   -0.1081 C   0  0  0  0  0  0  0  0  0  0  0  0
   -8.1011   -7.1057    0.9237 H   0  0  0  0  0  0  0  0  0  0  0  0
   -6.7561   -7.6345   -0.1268 H   0  0  0  0  0  0  0  0  0  0  0  0
   -8.4300   -7.7542   -0.6886 H   0  0  0  0  0  0  0  0  0  0  0  0
   -3.1983    0.6245    1.9038 H   0  0  0  0  0  0  0  0  0  0  0  0
   -3.1492   -0.3936    3.3243 H   0  0  0  0  0  0  0  0  0  0  0  0
   -0.7728    1.3157    2.5426 H   0  0  0  0  0  0  0  0  0  0  0  0
    0.5083    0.0878    2.5742 H   0  0  0  0  0  0  0  0  0  0  0  0
   -0.7123    0.1263    3.8531 H   0  0  0  0  0  0  0  0  0  0  0  0
   -1.2642   -1.6894    2.3547 H   0  0  0  0  0  0  0  0  0  0  0  0
   -1.7107   -0.6213   -1.4481 H   0  0  0  0  0  0  0  0  0  0  0  0
   -2.7167    0.2902   -0.3535 H   0  0  0  0  0  0  0  0  0  0  0  0
   -1.9111    2.4119    0.3191 H   0  0  0  0  0  0  0  0  0  0  0  0
   -0.8091    2.9431   -2.4555 H   0  0  0  0  0  0  0  0  0  0  0  0
   -2.8700    3.4690   -1.2846 H   0  0  0  0  0  0  0  0  0  0  0  0
   -3.6250    1.9650   -1.8427 H   0  0  0  0  0  0  0  0  0  0  0  0
   -3.1976    3.2333   -2.9979 H   0  0  0  0  0  0  0  0  0  0  0  0
    1.6801    1.1302   -4.6846 H   0  0  0  0  0  0  0  0  0  0  0  0
    1.1631    2.1184   -3.3321 H   0  0  0  0  0  0  0  0  0  0  0  0
    1.4508    0.3836   -3.1036 H   0  0  0  0  0  0  0  0  0  0  0  0
   -2.2885    0.9045   -3.8243 H   0  0  0  0  0  0  0  0  0  0  0  0
    0.1143    1.1269   -1.1382 H   0  0  0  0  0  0  0  0  0  0  0  0
   -3.8563   -1.2895    1.5604 O   0  0  0  0  0  0  0  0  0  0  0  0
   -4.1136   -2.5306    2.2430 C   0  0  0  0  0  0  0  0  0  0  0  0
   -3.1913   -3.0981    2.3884 H   0  0  0  0  0  0  0  0  0  0  0  0
   -4.5328   -2.3290    3.2321 H   0  0  0  0  0  0  0  0  0  0  0  0
  1 31  1  0  0  0  0
  2  1  1  0  0  0  0
  2 35  1  1  0  0  0
  2  3  1  0  0  0  0
  3 34  1  0  0  0  0
  4  2  1  0  0  0  0
  5  4  2  0  0  0  0
  6 37  1  0  0  0  0
  6  4  1  0  0  0  0
  7 47  1  6  0  0  0
  7  6  1  0  0  0  0
  7  8  1  0  0  0  0
  8 38  1  0  0  0  0
  9 39  1  6  0  0  0
  9 10  1  0  0  0  0
  9  7  1  0  0  0  0
 10 41  1  0  0  0  0
 10 40  1  0  0  0  0
 11  9  1  0  0  0  0
 12 13  1  0  0  0  0
 12 11  2  0  0  0  0
 13 44  1  0  0  0  0
 13 45  1  0  0  0  0
 14 12  1  0  0  0  0
 15 16  1  0  0  0  0
 16 21  1  0  0  0  0
 16 17  2  0  0  0  0
 17 22  1  0  0  0  0
 18 17  1  0  0  0  0
 18 49  1  0  0  0  0
 19 18  2  0  0  0  0
 20 15  2  0  0  0  0
 20 19  1  0  0  0  0
 23 19  1  0  0  0  0
 24 20  1  0  0  0  0
 25 26  1  0  0  0  0
 25 15  1  0  0  0  0
 26 27  1  0  0  0  0
 28 26  1  0  0  0  0
 29 26  1  0  0  0  0
 30  1  1  0  0  0  0
 32  3  1  0  0  0  0
 33  3  1  0  0  0  0
 36  6  1  0  0  0  0
 42 10  1  0  0  0  0
 43 13  1  0  0  0  0
 46 11  1  0  0  0  0
 48 49  1  0  0  0  0
 48  1  1  0  0  0  0
 49 50  1  0  0  0  0
 49 51  1  0  0  0  0
M  END
$$$$
