
 OpenBabel11301904113D

 51 51  0  0  1  0  0  0  0  0999 V2000
   -5.0757    0.9861   -2.1058 C   0  0  0  0  0  0  0  0  0  0  0  0
   -3.8632    1.9058   -2.4756 C   0  0  2  0  0  0  0  0  0  0  0  0
   -3.5353    2.9053   -1.3315 C   0  0  0  0  0  0  0  0  0  0  0  0
   -2.6077    1.2045   -2.8875 C   0  0  0  0  0  0  0  0  0  0  0  0
   -2.0750    1.5461   -3.9708 O   0  0  0  0  0  0  0  0  0  0  0  0
   -1.9581    0.1026   -2.1236 C   0  0  0  0  0  0  0  0  0  0  0  0
   -0.4996    0.3894   -1.6460 C   0  0  2  0  0  0  0  0  0  0  0  0
   -0.5617    1.1286   -0.4221 O   0  0  0  0  0  0  0  0  0  0  0  0
    0.3903   -0.8990   -1.4964 C   0  0  2  0  0  0  0  0  0  0  0  0
   -0.2263   -2.0066   -0.5884 C   0  0  0  0  0  0  0  0  0  0  0  0
    1.7341   -0.5557   -1.0198 C   0  0  0  0  0  0  0  0  0  0  0  0
    2.8177   -0.2419   -1.7556 C   0  0  0  0  0  0  0  0  0  0  0  0
    2.8972   -0.1427   -3.1996 C   0  0  0  0  0  0  0  0  0  0  0  0
    4.5388    0.1356   -0.7500 I   0  0  0  0  0  0  0  0  0  0  0  0
   -7.2459   -3.7045   -5.9727 C   0  0  0  0  0  0  0  0  0  0  0  0
   -6.8300   -4.1234   -4.6943 C   0  0  0  0  0  0  0  0  0  0  0  0
   -6.0768   -3.2601   -3.8750 C   0  0  0  0  0  0  0  0  0  0  0  0
   -5.7331   -1.9588   -4.3151 C   0  0  0  0  0  0  0  0  0  0  0  0
   -6.1749   -1.5413   -5.5929 C   0  0  0  0  0  0  0  0  0  0  0  0
   -6.9286   -2.4041   -6.4111 C   0  0  0  0  0  0  0  0  0  0  0  0
   -7.0701   -5.0588   -4.3577 H   0  0  0  0  0  0  0  0  0  0  0  0
   -5.7743   -3.5951   -2.9558 H   0  0  0  0  0  0  0  0  0  0  0  0
   -5.9432   -0.6067   -5.9402 H   0  0  0  0  0  0  0  0  0  0  0  0
   -7.2417   -2.0861   -7.3307 H   0  0  0  0  0  0  0  0  0  0  0  0
   -7.9719   -4.5436   -6.7740 O   0  0  0  0  0  0  0  0  0  0  0  0
   -7.1500   -5.2995   -7.6834 C   0  0  0  0  0  0  0  0  0  0  0  0
   -6.4820   -5.9773   -7.1445 H   0  0  0  0  0  0  0  0  0  0  0  0
   -6.5583   -4.6471   -8.3328 H   0  0  0  0  0  0  0  0  0  0  0  0
   -7.8072   -5.8992   -8.3155 H   0  0  0  0  0  0  0  0  0  0  0  0
   -5.9051    1.6408   -1.8304 H   0  0  0  0  0  0  0  0  0  0  0  0
   -4.8589    0.3951   -1.2125 H   0  0  0  0  0  0  0  0  0  0  0  0
   -2.7151    3.5674   -1.6215 H   0  0  0  0  0  0  0  0  0  0  0  0
   -3.2501    2.3723   -0.4219 H   0  0  0  0  0  0  0  0  0  0  0  0
   -4.4025    3.5300   -1.1059 H   0  0  0  0  0  0  0  0  0  0  0  0
   -4.2034    2.5173   -3.3199 H   0  0  0  0  0  0  0  0  0  0  0  0
   -2.5587   -0.1627   -1.2485 H   0  0  0  0  0  0  0  0  0  0  0  0
   -1.9489   -0.7645   -2.7877 H   0  0  0  0  0  0  0  0  0  0  0  0
    0.3640    1.3815   -0.2220 H   0  0  0  0  0  0  0  0  0  0  0  0
    0.4698   -1.3645   -2.4833 H   0  0  0  0  0  0  0  0  0  0  0  0
   -1.1630   -2.3799   -1.0066 H   0  0  0  0  0  0  0  0  0  0  0  0
   -0.4194   -1.6241    0.4162 H   0  0  0  0  0  0  0  0  0  0  0  0
    0.4582   -2.8566   -0.5111 H   0  0  0  0  0  0  0  0  0  0  0  0
    3.4486   -1.0023   -3.5872 H   0  0  0  0  0  0  0  0  0  0  0  0
    1.9226   -0.0992   -3.6845 H   0  0  0  0  0  0  0  0  0  0  0  0
    3.4374    0.7676   -3.4657 H   0  0  0  0  0  0  0  0  0  0  0  0
    1.8619   -0.5527   -0.0339 H   0  0  0  0  0  0  0  0  0  0  0  0
   -0.0095    1.0362   -2.3815 H   0  0  0  0  0  0  0  0  0  0  0  0
   -5.6137    0.1594   -3.1671 O   0  0  0  0  0  0  0  0  0  0  0  0
   -4.9013   -1.0549   -3.4803 C   0  0  0  0  0  0  0  0  0  0  0  0
   -4.0110   -0.8130   -4.0567 H   0  0  0  0  0  0  0  0  0  0  0  0
   -4.5877   -1.5675   -2.5661 H   0  0  0  0  0  0  0  0  0  0  0  0
  1 30  1  0  0  0  0
  1 31  1  0  0  0  0
  2 35  1  6  0  0  0
  2  1  1  0  0  0  0
  2  3  1  0  0  0  0
  3 34  1  0  0  0  0
  3 33  1  0  0  0  0
  4  2  1  0  0  0  0
  4  6  1  0  0  0  0
  5  4  2  0  0  0  0
  6  7  1  0  0  0  0
  6 36  1  0  0  0  0
  7 47  1  6  0  0  0
  7  9  1  0  0  0  0
  7  8  1  0  0  0  0
  8 38  1  0  0  0  0
  9 39  1  6  0  0  0
  9 11  1  0  0  0  0
  9 10  1  0  0  0  0
 10 42  1  0  0  0  0
 10 41  1  0  0  0  0
 11 46  1  0  0  0  0
 12 11  2  0  0  0  0
 12 14  1  0  0  0  0
 13 12  1  0  0  0  0
 15 16  1  0  0  0  0
 16 21  1  0  0  0  0
 16 17  2  0  0  0  0
 17 22  1  0  0  0  0
 18 17  1  0  0  0  0
 18 49  1  0  0  0  0
 19 18  2  0  0  0  0
 20 15  2  0  0  0  0
 20 19  1  0  0  0  0
 23 19  1  0  0  0  0
 24 20  1  0  0  0  0
 25 15  1  0  0  0  0
 26 27  1  0  0  0  0
 26 25  1  0  0  0  0
 28 26  1  0  0  0  0
 29 26  1  0  0  0  0
 32  3  1  0  0  0  0
 37  6  1  0  0  0  0
 40 10  1  0  0  0  0
 43 13  1  0  0  0  0
 44 13  1  0  0  0  0
 45 13  1  0  0  0  0
 48  1  1  0  0  0  0
 49 48  1  0  0  0  0
 49 51  1  0  0  0  0
 50 49  1  0  0  0  0
M  END
$$$$
