
 OpenBabel11301904103D

 66 68  0  0  1  0  0  0  0  0999 V2000
   -1.1316    0.4393    3.2717 C   0  0  0  0  0  0  0  0  0  0  0  0
   -1.4645    1.8129    3.2206 C   0  0  0  0  0  0  0  0  0  0  0  0
   -1.1855    2.5363    2.0359 C   0  0  0  0  0  0  0  0  0  0  0  0
   -0.6131    1.8953    0.9209 C   0  0  0  0  0  0  0  0  0  0  0  0
   -0.3006    0.5213    0.9714 C   0  0  0  0  0  0  0  0  0  0  0  0
   -0.5627   -0.2027    2.1533 C   0  0  0  0  0  0  0  0  0  0  0  0
   -2.1132    2.4763    4.3802 C   0  0  0  0  0  0  0  0  0  0  0  0
   -1.1166    2.8196    5.3689 O   0  0  0  0  0  0  0  0  0  0  0  0
   -1.6184    3.5784    6.4942 C   0  0  0  0  0  0  0  0  0  0  0  0
   -0.5106    4.0247    7.5184 C   0  0  2  0  0  0  0  0  0  0  0  0
   -1.1265    5.0469    8.5305 C   0  0  0  0  0  0  0  0  0  0  0  0
    0.3281    2.8571    8.1954 C   0  0  1  0  0  0  0  0  0  0  0  0
    1.6847    3.2991    8.8662 C   0  0  0  0  0  0  0  0  0  0  0  0
    1.6682    3.7361   10.3801 C   0  0  1  0  0  0  0  0  0  0  0  0
    1.6248    5.2525   10.8174 C   0  0  1  0  0  0  0  0  0  0  0  0
    2.0146    5.4048   12.3253 C   0  0  0  0  0  0  0  0  0  0  0  0
    2.4932    6.2582   10.0066 C   0  0  0  0  0  0  0  0  0  0  0  0
    2.0450    6.3607    8.6491 O   0  0  0  0  0  0  0  0  0  0  0  0
    2.6020    7.4445    7.8904 C   0  0  0  0  0  0  0  0  0  0  0  0
    2.2950    6.3280    3.7424 C   0  0  0  0  0  0  0  0  0  0  0  0
    3.5383    6.2679    4.3972 C   0  0  0  0  0  0  0  0  0  0  0  0
    3.6345    6.6331    5.7516 C   0  0  0  0  0  0  0  0  0  0  0  0
    2.4924    7.0673    6.4648 C   0  0  0  0  0  0  0  0  0  0  0  0
    1.2439    7.1057    5.8001 C   0  0  0  0  0  0  0  0  0  0  0  0
    1.1466    6.7421    4.4428 C   0  0  0  0  0  0  0  0  0  0  0  0
    0.2023   -0.1142   -0.1357 O   0  0  0  0  0  0  0  0  0  0  0  0
    1.6387   -0.1169   -0.1984 C   0  0  0  0  0  0  0  0  0  0  0  0
    0.6104    3.0716   11.0946 O   0  0  0  0  0  0  0  0  0  0  0  0
   -0.4874    1.9332    9.1673 C   0  0  0  0  0  0  0  0  0  0  0  0
   -0.3869    2.2900   10.5976 C   0  0  0  0  0  0  0  0  0  0  0  0
   -1.2171    1.8272   11.4118 O   0  0  0  0  0  0  0  0  0  0  0  0
    0.7305    2.0265    7.0933 O   0  0  0  0  0  0  0  0  0  0  0  0
   -1.3103   -0.1056    4.1199 H   0  0  0  0  0  0  0  0  0  0  0  0
   -1.3990    3.5354    1.9750 H   0  0  0  0  0  0  0  0  0  0  0  0
   -0.4283    2.4310    0.0695 H   0  0  0  0  0  0  0  0  0  0  0  0
   -0.3444   -1.2006    2.1989 H   0  0  0  0  0  0  0  0  0  0  0  0
   -2.6417    3.3741    4.0439 H   0  0  0  0  0  0  0  0  0  0  0  0
   -2.8644    1.8085    4.8136 H   0  0  0  0  0  0  0  0  0  0  0  0
   -2.3962    3.0111    7.0096 H   0  0  0  0  0  0  0  0  0  0  0  0
   -2.0767    4.4855    6.0856 H   0  0  0  0  0  0  0  0  0  0  0  0
    0.2000    4.5873    6.9045 H   0  0  0  0  0  0  0  0  0  0  0  0
   -2.0498    5.4978    8.1615 H   0  0  0  0  0  0  0  0  0  0  0  0
   -1.3604    4.5836    9.4877 H   0  0  0  0  0  0  0  0  0  0  0  0
   -0.4344    5.8681    8.6963 H   0  0  0  0  0  0  0  0  0  0  0  0
    2.3297    2.4134    8.8454 H   0  0  0  0  0  0  0  0  0  0  0  0
    2.2026    4.0162    8.2369 H   0  0  0  0  0  0  0  0  0  0  0  0
    2.5987    3.3417   10.8050 H   0  0  0  0  0  0  0  0  0  0  0  0
    0.5933    5.5977   10.7429 H   0  0  0  0  0  0  0  0  0  0  0  0
    1.3994    4.7616   12.9556 H   0  0  0  0  0  0  0  0  0  0  0  0
    1.8689    6.4341   12.6635 H   0  0  0  0  0  0  0  0  0  0  0  0
    3.0644    5.1427   12.4839 H   0  0  0  0  0  0  0  0  0  0  0  0
    3.5421    5.9500   10.0350 H   0  0  0  0  0  0  0  0  0  0  0  0
    2.4067    7.2488   10.4642 H   0  0  0  0  0  0  0  0  0  0  0  0
    3.6466    7.6338    8.1568 H   0  0  0  0  0  0  0  0  0  0  0  0
    2.0376    8.3588    8.0911 H   0  0  0  0  0  0  0  0  0  0  0  0
    2.2280    6.0730    2.7553 H   0  0  0  0  0  0  0  0  0  0  0  0
    4.3728    5.9595    3.8918 H   0  0  0  0  0  0  0  0  0  0  0  0
    4.5447    6.5768    6.2153 H   0  0  0  0  0  0  0  0  0  0  0  0
    0.3995    7.3988    6.2993 H   0  0  0  0  0  0  0  0  0  0  0  0
    0.2427    6.7818    3.9656 H   0  0  0  0  0  0  0  0  0  0  0  0
    2.0735   -0.6608    0.6419 H   0  0  0  0  0  0  0  0  0  0  0  0
    1.9368   -0.6218   -1.1158 H   0  0  0  0  0  0  0  0  0  0  0  0
    2.0408    0.8973   -0.2270 H   0  0  0  0  0  0  0  0  0  0  0  0
   -1.5412    1.9259    8.8850 H   0  0  0  0  0  0  0  0  0  0  0  0
   -0.1335    0.9011    9.0890 H   0  0  0  0  0  0  0  0  0  0  0  0
    1.2111    1.2641    7.4798 H   0  0  0  0  0  0  0  0  0  0  0  0
  1 33  1  0  0  0  0
  2  1  1  0  0  0  0
  2  7  1  0  0  0  0
  3  2  2  0  0  0  0
  4  5  2  0  0  0  0
  4  3  1  0  0  0  0
  5  6  1  0  0  0  0
  6 36  1  0  0  0  0
  6  1  2  0  0  0  0
  7 38  1  0  0  0  0
  7  8  1  0  0  0  0
  8  9  1  0  0  0  0
  9 39  1  0  0  0  0
  9 10  1  0  0  0  0
 10 41  1  6  0  0  0
 10 12  1  0  0  0  0
 10 11  1  0  0  0  0
 11 44  1  0  0  0  0
 11 43  1  0  0  0  0
 12 32  1  6  0  0  0
 12 13  1  0  0  0  0
 12 29  1  0  0  0  0
 13 14  1  0  0  0  0
 14 47  1  1  0  0  0
 14 15  1  0  0  0  0
 14 28  1  0  0  0  0
 15 48  1  6  0  0  0
 15 16  1  0  0  0  0
 16 51  1  0  0  0  0
 16 50  1  0  0  0  0
 16 49  1  0  0  0  0
 17 52  1  0  0  0  0
 17 53  1  0  0  0  0
 17 15  1  0  0  0  0
 18 17  1  0  0  0  0
 19 55  1  0  0  0  0
 19 54  1  0  0  0  0
 19 18  1  0  0  0  0
 20 21  2  0  0  0  0
 20 25  1  0  0  0  0
 21 22  1  0  0  0  0
 22 58  1  0  0  0  0
 22 23  2  0  0  0  0
 23 19  1  0  0  0  0
 24 59  1  0  0  0  0
 24 23  1  0  0  0  0
 25 24  2  0  0  0  0
 26  5  1  0  0  0  0
 27 26  1  0  0  0  0
 27 61  1  0  0  0  0
 29 30  1  0  0  0  0
 30 28  1  0  0  0  0
 30 31  2  0  0  0  0
 32 66  1  0  0  0  0
 34  3  1  0  0  0  0
 35  4  1  0  0  0  0
 37  7  1  0  0  0  0
 40  9  1  0  0  0  0
 42 11  1  0  0  0  0
 45 13  1  0  0  0  0
 46 13  1  0  0  0  0
 56 20  1  0  0  0  0
 57 21  1  0  0  0  0
 60 25  1  0  0  0  0
 62 27  1  0  0  0  0
 63 27  1  0  0  0  0
 64 29  1  0  0  0  0
 65 29  1  0  0  0  0
M  END
$$$$
