
 OpenBabel11301904103D

 66 68  0  0  1  0  0  0  0  0999 V2000
   -1.2425    0.5099    3.3851 C   0  0  0  0  0  0  0  0  0  0  0  0
   -1.5638    1.8866    3.3469 C   0  0  0  0  0  0  0  0  0  0  0  0
   -1.2761    2.6132    2.1670 C   0  0  0  0  0  0  0  0  0  0  0  0
   -0.6963    1.9756    1.0529 C   0  0  0  0  0  0  0  0  0  0  0  0
   -0.3930    0.5998    1.0947 C   0  0  0  0  0  0  0  0  0  0  0  0
   -0.6658   -0.1278    2.2700 C   0  0  0  0  0  0  0  0  0  0  0  0
   -2.1729    2.5494    4.5290 C   0  0  0  0  0  0  0  0  0  0  0  0
   -1.1158    2.8569    5.4585 O   0  0  0  0  0  0  0  0  0  0  0  0
   -1.4549    3.7500    6.5376 C   0  0  0  0  0  0  0  0  0  0  0  0
   -0.1860    4.2447    7.3122 C   0  0  1  0  0  0  0  0  0  0  0  0
   -0.6465    4.8766    8.6672 C   0  0  0  0  0  0  0  0  0  0  0  0
    0.7701    5.2081    6.4808 C   0  0  1  0  0  0  0  0  0  0  0  0
    1.9831    5.7752    7.3083 C   0  0  0  0  0  0  0  0  0  0  0  0
    2.9606    4.6360    7.7532 C   0  0  2  0  0  0  0  0  0  0  0  0
    4.2685    5.1433    8.4569 C   0  0  1  0  0  0  0  0  0  0  0  0
    3.9587    5.8333    9.8216 C   0  0  0  0  0  0  0  0  0  0  0  0
    5.3088    4.0010    8.6821 C   0  0  0  0  0  0  0  0  0  0  0  0
    5.8198    3.4851    7.4339 O   0  0  0  0  0  0  0  0  0  0  0  0
    6.7187    2.3674    7.5794 C   0  0  0  0  0  0  0  0  0  0  0  0
    7.8645    0.9247    3.6726 C   0  0  0  0  0  0  0  0  0  0  0  0
    6.7775    0.3428    4.3482 C   0  0  0  0  0  0  0  0  0  0  0  0
    6.4037    0.8158    5.6199 C   0  0  0  0  0  0  0  0  0  0  0  0
    7.1140    1.8737    6.2363 C   0  0  0  0  0  0  0  0  0  0  0  0
    8.2053    2.4507    5.5432 C   0  0  0  0  0  0  0  0  0  0  0  0
    8.5809    1.9761    4.2716 C   0  0  0  0  0  0  0  0  0  0  0  0
    0.1082   -0.0347   -0.0120 O   0  0  0  0  0  0  0  0  0  0  0  0
    1.5448   -0.0470   -0.0772 C   0  0  0  0  0  0  0  0  0  0  0  0
    3.2614    3.7891    6.6229 O   0  0  0  0  0  0  0  0  0  0  0  0
    1.4094    4.5637    5.2004 C   0  0  0  0  0  0  0  0  0  0  0  0
    2.4350    3.5621    5.5591 C   0  0  0  0  0  0  0  0  0  0  0  0
    2.6093    2.5386    4.8608 O   0  0  0  0  0  0  0  0  0  0  0  0
   -0.0237    6.3187    6.0459 O   0  0  0  0  0  0  0  0  0  0  0  0
   -1.4328   -0.0412    4.2248 H   0  0  0  0  0  0  0  0  0  0  0  0
   -1.4857    3.6131    2.1084 H   0  0  0  0  0  0  0  0  0  0  0  0
   -0.4979    2.5135    0.2062 H   0  0  0  0  0  0  0  0  0  0  0  0
   -0.4482   -1.1262    2.3119 H   0  0  0  0  0  0  0  0  0  0  0  0
   -2.6984    3.4577    4.2203 H   0  0  0  0  0  0  0  0  0  0  0  0
   -2.9108    1.8900    4.9945 H   0  0  0  0  0  0  0  0  0  0  0  0
   -2.1114    3.1983    7.2164 H   0  0  0  0  0  0  0  0  0  0  0  0
   -2.0021    4.6212    6.1697 H   0  0  0  0  0  0  0  0  0  0  0  0
    0.3751    3.3450    7.5764 H   0  0  0  0  0  0  0  0  0  0  0  0
   -1.1421    5.8349    8.5001 H   0  0  0  0  0  0  0  0  0  0  0  0
   -1.3417    4.2196    9.1934 H   0  0  0  0  0  0  0  0  0  0  0  0
    0.1981    5.0332    9.3394 H   0  0  0  0  0  0  0  0  0  0  0  0
    2.5436    6.4824    6.6905 H   0  0  0  0  0  0  0  0  0  0  0  0
    1.6282    6.3483    8.1621 H   0  0  0  0  0  0  0  0  0  0  0  0
    2.4427    3.9949    8.4702 H   0  0  0  0  0  0  0  0  0  0  0  0
    4.7356    5.8951    7.8121 H   0  0  0  0  0  0  0  0  0  0  0  0
    3.3746    6.7420    9.6733 H   0  0  0  0  0  0  0  0  0  0  0  0
    4.8817    6.1176   10.3310 H   0  0  0  0  0  0  0  0  0  0  0  0
    3.3992    5.1627   10.4778 H   0  0  0  0  0  0  0  0  0  0  0  0
    4.8339    3.2034    9.2614 H   0  0  0  0  0  0  0  0  0  0  0  0
    6.1522    4.3892    9.2595 H   0  0  0  0  0  0  0  0  0  0  0  0
    6.2314    1.5636    8.1398 H   0  0  0  0  0  0  0  0  0  0  0  0
    7.6082    2.6652    8.1421 H   0  0  0  0  0  0  0  0  0  0  0  0
    8.1325    0.5844    2.7465 H   0  0  0  0  0  0  0  0  0  0  0  0
    6.2585   -0.4242    3.9149 H   0  0  0  0  0  0  0  0  0  0  0  0
    5.6071    0.3822    6.0932 H   0  0  0  0  0  0  0  0  0  0  0  0
    8.7361    3.2192    5.9609 H   0  0  0  0  0  0  0  0  0  0  0  0
    9.3749    2.3951    3.7817 H   0  0  0  0  0  0  0  0  0  0  0  0
    1.9770   -0.5897    0.7668 H   0  0  0  0  0  0  0  0  0  0  0  0
    1.8403   -0.5579   -0.9946 H   0  0  0  0  0  0  0  0  0  0  0  0
    1.9507    0.9668   -0.1088 H   0  0  0  0  0  0  0  0  0  0  0  0
    0.6703    4.1426    4.5200 H   0  0  0  0  0  0  0  0  0  0  0  0
    1.9166    5.3451    4.6265 H   0  0  0  0  0  0  0  0  0  0  0  0
    0.5806    6.8823    5.5187 H   0  0  0  0  0  0  0  0  0  0  0  0
  1 33  1  0  0  0  0
  2  1  1  0  0  0  0
  2  7  1  0  0  0  0
  3  2  2  0  0  0  0
  4  5  2  0  0  0  0
  4  3  1  0  0  0  0
  5  6  1  0  0  0  0
  6 36  1  0  0  0  0
  6  1  2  0  0  0  0
  7 38  1  0  0  0  0
  7  8  1  0  0  0  0
  8  9  1  0  0  0  0
  9 39  1  0  0  0  0
  9 10  1  0  0  0  0
 10 41  1  1  0  0  0
 10 11  1  0  0  0  0
 11 43  1  0  0  0  0
 11 44  1  0  0  0  0
 12 32  1  6  0  0  0
 12 13  1  0  0  0  0
 12 10  1  0  0  0  0
 13 14  1  0  0  0  0
 13 46  1  0  0  0  0
 14 15  1  0  0  0  0
 14 47  1  1  0  0  0
 15 48  1  6  0  0  0
 15 17  1  0  0  0  0
 15 16  1  0  0  0  0
 16 50  1  0  0  0  0
 16 51  1  0  0  0  0
 17 53  1  0  0  0  0
 17 52  1  0  0  0  0
 18 19  1  0  0  0  0
 18 17  1  0  0  0  0
 19 54  1  0  0  0  0
 19 55  1  0  0  0  0
 20 25  2  0  0  0  0
 20 21  1  0  0  0  0
 21 22  2  0  0  0  0
 22 58  1  0  0  0  0
 22 23  1  0  0  0  0
 23 19  1  0  0  0  0
 24 59  1  0  0  0  0
 24 23  2  0  0  0  0
 25 24  1  0  0  0  0
 26  5  1  0  0  0  0
 27 26  1  0  0  0  0
 27 61  1  0  0  0  0
 28 14  1  0  0  0  0
 29 30  1  0  0  0  0
 29 12  1  0  0  0  0
 30 28  1  0  0  0  0
 31 30  2  0  0  0  0
 34  3  1  0  0  0  0
 35  4  1  0  0  0  0
 37  7  1  0  0  0  0
 40  9  1  0  0  0  0
 42 11  1  0  0  0  0
 45 13  1  0  0  0  0
 49 16  1  0  0  0  0
 56 20  1  0  0  0  0
 57 21  1  0  0  0  0
 60 25  1  0  0  0  0
 62 27  1  0  0  0  0
 63 27  1  0  0  0  0
 64 29  1  0  0  0  0
 65 29  1  0  0  0  0
 66 32  1  0  0  0  0
M  END
$$$$
