
 OpenBabel11301904103D

 66 68  0  0  1  0  0  0  0  0999 V2000
   -1.3016    0.5649    3.2897 C   0  0  0  0  0  0  0  0  0  0  0  0
   -1.5667    1.9546    3.2479 C   0  0  0  0  0  0  0  0  0  0  0  0
   -1.2380    2.6705    2.0730 C   0  0  0  0  0  0  0  0  0  0  0  0
   -0.6695    2.0122    0.9661 C   0  0  0  0  0  0  0  0  0  0  0  0
   -0.4048    0.6293    1.0187 C   0  0  0  0  0  0  0  0  0  0  0  0
   -0.7277   -0.0916    2.1851 C   0  0  0  0  0  0  0  0  0  0  0  0
   -2.1537    2.6573    4.4166 C   0  0  0  0  0  0  0  0  0  0  0  0
   -1.0843    3.3454    5.0873 O   0  0  0  0  0  0  0  0  0  0  0  0
   -1.4083    3.9402    6.3579 C   0  0  0  0  0  0  0  0  0  0  0  0
   -0.1012    4.3125    7.1375 C   0  0  2  0  0  0  0  0  0  0  0  0
   -0.4789    5.2727    8.3069 C   0  0  0  0  0  0  0  0  0  0  0  0
    0.7572    3.0478    7.5813 C   0  0  2  0  0  0  0  0  0  0  0  0
    1.9887    3.4110    8.4824 C   0  0  0  0  0  0  0  0  0  0  0  0
    2.8922    2.1901    8.8700 C   0  0  1  0  0  0  0  0  0  0  0  0
    2.4141    1.1851    9.9889 C   0  0  1  0  0  0  0  0  0  0  0  0
    3.4944    0.0837   10.2352 C   0  0  0  0  0  0  0  0  0  0  0  0
    2.0687    1.8324   11.3660 C   0  0  0  0  0  0  0  0  0  0  0  0
    0.8955    2.6619   11.2957 O   0  0  0  0  0  0  0  0  0  0  0  0
    0.5878    3.3559   12.5182 C   0  0  0  0  0  0  0  0  0  0  0  0
   -2.2368    6.4554   11.5221 C   0  0  0  0  0  0  0  0  0  0  0  0
   -0.8783    6.7717   11.6967 C   0  0  0  0  0  0  0  0  0  0  0  0
    0.0405    5.7622   12.0339 C   0  0  0  0  0  0  0  0  0  0  0  0
   -0.3852    4.4218   12.1904 C   0  0  0  0  0  0  0  0  0  0  0  0
   -1.7521    4.1138   11.9979 C   0  0  0  0  0  0  0  0  0  0  0  0
   -2.6730    5.1262   11.6668 C   0  0  0  0  0  0  0  0  0  0  0  0
    0.1222   -0.0168   -0.0668 O   0  0  0  0  0  0  0  0  0  0  0  0
    1.5606   -0.0460   -0.0751 C   0  0  0  0  0  0  0  0  0  0  0  0
    3.1760    1.4204    7.6892 O   0  0  0  0  0  0  0  0  0  0  0  0
    1.2599    2.2343    6.3324 C   0  0  0  0  0  0  0  0  0  0  0  0
    2.4402    1.3752    6.5473 C   0  0  0  0  0  0  0  0  0  0  0  0
    2.8111    0.5954    5.6421 O   0  0  0  0  0  0  0  0  0  0  0  0
   -0.0869    2.1806    8.3462 O   0  0  0  0  0  0  0  0  0  0  0  0
   -1.5205    0.0198    4.1275 H   0  0  0  0  0  0  0  0  0  0  0  0
   -1.4152    3.6767    2.0152 H   0  0  0  0  0  0  0  0  0  0  0  0
   -0.4510    2.5412    0.1188 H   0  0  0  0  0  0  0  0  0  0  0  0
   -0.5474   -1.0972    2.2306 H   0  0  0  0  0  0  0  0  0  0  0  0
   -2.9190    3.3665    4.0892 H   0  0  0  0  0  0  0  0  0  0  0  0
   -2.6288    1.9369    5.0903 H   0  0  0  0  0  0  0  0  0  0  0  0
   -2.0124    3.2697    6.9771 H   0  0  0  0  0  0  0  0  0  0  0  0
   -1.9999    4.8372    6.1538 H   0  0  0  0  0  0  0  0  0  0  0  0
    0.5136    4.9122    6.4571 H   0  0  0  0  0  0  0  0  0  0  0  0
   -1.0976    6.1001    7.9540 H   0  0  0  0  0  0  0  0  0  0  0  0
   -1.0333    4.7392    9.0771 H   0  0  0  0  0  0  0  0  0  0  0  0
    0.4112    5.7161    8.7518 H   0  0  0  0  0  0  0  0  0  0  0  0
    2.6089    4.1172    7.9201 H   0  0  0  0  0  0  0  0  0  0  0  0
    1.6832    3.9312    9.3858 H   0  0  0  0  0  0  0  0  0  0  0  0
    3.8447    2.6184    9.1993 H   0  0  0  0  0  0  0  0  0  0  0  0
    1.5195    0.6685    9.6293 H   0  0  0  0  0  0  0  0  0  0  0  0
    3.7382   -0.4480    9.3143 H   0  0  0  0  0  0  0  0  0  0  0  0
    3.1328   -0.6581   10.9505 H   0  0  0  0  0  0  0  0  0  0  0  0
    4.4116    0.5260   10.6329 H   0  0  0  0  0  0  0  0  0  0  0  0
    2.9356    2.4108   11.7024 H   0  0  0  0  0  0  0  0  0  0  0  0
    1.8717    1.0439   12.1011 H   0  0  0  0  0  0  0  0  0  0  0  0
    1.4870    3.7963   12.9629 H   0  0  0  0  0  0  0  0  0  0  0  0
    0.1606    2.6632   13.2493 H   0  0  0  0  0  0  0  0  0  0  0  0
   -2.9052    7.1913   11.2874 H   0  0  0  0  0  0  0  0  0  0  0  0
   -0.5563    7.7348   11.5762 H   0  0  0  0  0  0  0  0  0  0  0  0
    1.0254    6.0116   12.1562 H   0  0  0  0  0  0  0  0  0  0  0  0
   -2.0846    3.1509   12.0970 H   0  0  0  0  0  0  0  0  0  0  0  0
   -3.6593    4.8948   11.5295 H   0  0  0  0  0  0  0  0  0  0  0  0
    1.9570   -0.5687    0.7998 H   0  0  0  0  0  0  0  0  0  0  0  0
    1.8799   -0.5875   -0.9666 H   0  0  0  0  0  0  0  0  0  0  0  0
    1.9811    0.9622   -0.1212 H   0  0  0  0  0  0  0  0  0  0  0  0
    0.4495    1.5898    5.9803 H   0  0  0  0  0  0  0  0  0  0  0  0
    1.5299    2.9172    5.5216 H   0  0  0  0  0  0  0  0  0  0  0  0
   -0.3309    2.6956    9.1420 H   0  0  0  0  0  0  0  0  0  0  0  0
  1 33  1  0  0  0  0
  2  1  1  0  0  0  0
  2  7  1  0  0  0  0
  3  2  2  0  0  0  0
  4  5  2  0  0  0  0
  4  3  1  0  0  0  0
  5  6  1  0  0  0  0
  6 36  1  0  0  0  0
  6  1  2  0  0  0  0
  7  8  1  0  0  0  0
  7 38  1  0  0  0  0
  8  9  1  0  0  0  0
  9 39  1  0  0  0  0
  9 10  1  0  0  0  0
 10 41  1  6  0  0  0
 10 12  1  0  0  0  0
 10 11  1  0  0  0  0
 11 44  1  0  0  0  0
 11 43  1  0  0  0  0
 12 32  1  1  0  0  0
 12 13  1  0  0  0  0
 13 14  1  0  0  0  0
 13 46  1  0  0  0  0
 14 47  1  1  0  0  0
 14 15  1  0  0  0  0
 15 48  1  6  0  0  0
 15 16  1  0  0  0  0
 15 17  1  0  0  0  0
 16 51  1  0  0  0  0
 16 50  1  0  0  0  0
 17 52  1  0  0  0  0
 17 53  1  0  0  0  0
 18 17  1  0  0  0  0
 18 19  1  0  0  0  0
 19 54  1  0  0  0  0
 19 55  1  0  0  0  0
 20 25  2  0  0  0  0
 20 21  1  0  0  0  0
 21 22  2  0  0  0  0
 22 58  1  0  0  0  0
 22 23  1  0  0  0  0
 23 19  1  0  0  0  0
 24 59  1  0  0  0  0
 24 23  2  0  0  0  0
 25 24  1  0  0  0  0
 26  5  1  0  0  0  0
 27 26  1  0  0  0  0
 27 61  1  0  0  0  0
 28 14  1  0  0  0  0
 29 30  1  0  0  0  0
 29 12  1  0  0  0  0
 30 28  1  0  0  0  0
 31 30  2  0  0  0  0
 32 66  1  0  0  0  0
 34  3  1  0  0  0  0
 35  4  1  0  0  0  0
 37  7  1  0  0  0  0
 40  9  1  0  0  0  0
 42 11  1  0  0  0  0
 45 13  1  0  0  0  0
 49 16  1  0  0  0  0
 56 20  1  0  0  0  0
 57 21  1  0  0  0  0
 60 25  1  0  0  0  0
 62 27  1  0  0  0  0
 63 27  1  0  0  0  0
 64 29  1  0  0  0  0
 65 29  1  0  0  0  0
M  END
$$$$
