S22b
     RDKit          3D

 25 26  0  0  1  0  0  0  0  0999 V2000
   -0.9253   -1.7891   -0.6604 C   0  0  0  0  0  0  0  0  0  0  0  0
    0.4812   -1.2814   -0.5778 C   0  0  0  0  0  0  0  0  0  0  0  0
    0.7069   -0.0227   -0.1403 C   0  0  0  0  0  0  0  0  0  0  0  0
   -0.3205    0.8556    0.2112 O   0  0  0  0  0  0  0  0  0  0  0  0
   -1.6065    0.3830    0.1391 C   0  0  0  0  0  0  0  0  0  0  0  0
   -1.9484   -0.8437   -0.2551 C   0  0  0  0  0  0  0  0  0  0  0  0
    1.4817   -2.1530   -0.9747 O   0  0  0  0  0  0  0  0  0  0  0  0
   -1.1310   -2.9323   -1.0482 O   0  0  0  0  0  0  0  0  0  0  0  0
    2.0086    0.6079   -0.0320 C   0  0  0  0  0  0  0  0  0  0  0  0
    3.1085    0.0391    0.4863 C   0  0  0  0  0  0  0  0  0  0  0  0
    4.4301    0.7269    0.5954 C   0  0  0  0  0  0  0  0  0  0  0  0
   -3.4058   -0.9008   -0.2027 C   0  0  0  0  0  0  0  0  0  0  0  0
   -3.8344    0.3137    0.2920 N   0  0  0  0  0  0  0  0  0  0  0  0
   -2.7686    1.2240    0.5083 C   0  0  2  0  0  0  0  0  0  0  0  0
   -4.1201   -1.8261   -0.5313 O   0  0  0  0  0  0  0  0  0  0  0  0
   -2.9418    2.2954   -0.3799 O   0  0  0  0  0  0  0  0  0  0  0  0
    1.0153   -2.9718   -1.2492 H   0  0  0  0  0  0  0  0  0  0  0  0
    2.0537    1.6383   -0.3795 H   0  0  0  0  0  0  0  0  0  0  0  0
    3.0746   -0.9854    0.8520 H   0  0  0  0  0  0  0  0  0  0  0  0
    4.7420    0.7701    1.6434 H   0  0  0  0  0  0  0  0  0  0  0  0
    5.1867    0.1708    0.0336 H   0  0  0  0  0  0  0  0  0  0  0  0
    4.3988    1.7494    0.2061 H   0  0  0  0  0  0  0  0  0  0  0  0
   -4.8106    0.5699    0.2909 H   0  0  0  0  0  0  0  0  0  0  0  0
   -2.7647    1.5625    1.5476 H   0  0  0  0  0  0  0  0  0  0  0  0
   -2.1106    2.7996   -0.3746 H   0  0  0  0  0  0  0  0  0  0  0  0
  1  2  1  0
  1  6  1  0
  1  8  2  0
  2  3  2  0
  2  7  1  0
  3  4  1  0
  3  9  1  0
  4  5  1  0
  5  6  2  0
  5 14  1  0
  6 12  1  0
  7 17  1  0
  9 10  2  0
  9 18  1  0
 10 11  1  0
 10 19  1  0
 11 20  1  0
 11 21  1  0
 11 22  1  0
 12 13  1  0
 12 15  2  0
 13 14  1  0
 13 23  1  0
 14 16  1  0
 14 24  1  1
 16 25  1  0
M  END
$$$$
