
 OpenBabel11301904133D

 72 74  0  0  1  0  0  0  0  0999 V2000
   -0.8150    8.9700    0.3478 C   0  0  0  0  0  0  0  0  0  0  0  0
    0.2158    8.2978    1.3436 C   0  0  1  0  0  0  0  0  0  0  0  0
   -0.2750    7.0126    1.7943 O   0  0  0  0  0  0  0  0  0  0  0  0
   -1.6153    6.9728    2.3457 C   0  0  0  0  0  0  0  0  0  0  0  0
   -2.5806    7.6740    1.5254 O   0  0  0  0  0  0  0  0  0  0  0  0
   -2.1883    8.9897    1.0978 C   0  0  0  0  0  0  0  0  0  0  0  0
   -1.6545    7.4752    3.8193 C   0  0  0  0  0  0  0  0  0  0  0  0
   -2.0386    5.4792    2.2767 C   0  0  0  0  0  0  0  0  0  0  0  0
   -0.4271   10.4447   -0.0057 C   0  0  0  0  0  0  0  0  0  0  0  0
   -0.9749    8.1480   -0.9788 C   0  0  0  0  0  0  0  0  0  0  0  0
    1.6421    8.0768    0.7480 C   0  0  0  0  0  0  0  0  0  0  0  0
    2.6318    7.4495    1.6428 C   0  0  0  0  0  0  0  0  0  0  0  0
    3.4587    8.3315    2.4689 C   0  0  0  0  0  0  0  0  0  0  0  0
    2.8088    6.1046    1.6035 C   0  0  0  0  0  0  0  0  0  0  0  0
    3.9222    5.3600    2.2061 C   0  0  1  0  0  0  0  0  0  0  0  0
    5.1905    5.8751    1.6993 O   0  0  0  0  0  0  0  0  0  0  0  0
    3.9639    3.7996    2.0201 C   0  0  1  0  0  0  0  0  0  0  0  0
    4.1631    3.5423    0.5081 C   0  0  1  0  0  0  0  0  0  0  0  0
    5.4637    4.0049    0.1137 O   0  0  0  0  0  0  0  0  0  0  0  0
    5.6790    5.4235    0.3916 C   0  0  0  0  0  0  0  0  0  0  0  0
    5.1238    6.3178   -0.7569 C   0  0  0  0  0  0  0  0  0  0  0  0
    7.2220    5.5913    0.4491 C   0  0  0  0  0  0  0  0  0  0  0  0
    3.8180    2.0542    0.3575 C   0  0  0  0  0  0  0  0  0  0  0  0
    2.8804    1.8006    1.5749 C   0  0  1  0  0  0  0  0  0  0  0  0
    2.7437    3.0726    2.2607 O   0  0  0  0  0  0  0  0  0  0  0  0
    5.1029    3.2211    2.9485 C   0  0  0  0  0  0  0  0  0  0  0  0
    1.4880    1.1906    1.2383 C   0  0  0  0  0  0  0  0  0  0  0  0
    0.9393    0.4334    2.3745 C   0  0  0  0  0  0  0  0  0  0  0  0
    1.1300   -1.0152    2.4372 C   0  0  0  0  0  0  0  0  0  0  0  0
    0.3216    1.0898    3.3775 C   0  0  0  0  0  0  0  0  0  0  0  0
   -0.4096    0.1998    5.0471 I   0  0  0  0  0  0  0  0  0  0  0  0
    0.3392    8.9484    2.2170 H   0  0  0  0  0  0  0  0  0  0  0  0
   -2.9777    9.3633    0.4410 H   0  0  0  0  0  0  0  0  0  0  0  0
   -2.1585    9.6647    1.9578 H   0  0  0  0  0  0  0  0  0  0  0  0
   -2.6715    7.4064    4.2134 H   0  0  0  0  0  0  0  0  0  0  0  0
   -0.9922    6.8752    4.4470 H   0  0  0  0  0  0  0  0  0  0  0  0
   -1.3354    8.5146    3.8898 H   0  0  0  0  0  0  0  0  0  0  0  0
   -3.0710    5.3957    2.7349 H   0  0  0  0  0  0  0  0  0  0  0  0
   -1.3706    4.8981    2.9825 H   0  0  0  0  0  0  0  0  0  0  0  0
   -1.9649    5.1680    1.1471 H   0  0  0  0  0  0  0  0  0  0  0  0
   -0.2756   11.0378    0.8999 H   0  0  0  0  0  0  0  0  0  0  0  0
    0.4902   10.4816   -0.5949 H   0  0  0  0  0  0  0  0  0  0  0  0
   -1.2159   10.9193   -0.5956 H   0  0  0  0  0  0  0  0  0  0  0  0
   -1.8066    8.5259   -1.5773 H   0  0  0  0  0  0  0  0  0  0  0  0
   -1.1610    7.0922   -0.7669 H   0  0  0  0  0  0  0  0  0  0  0  0
   -0.0775    8.2170   -1.5960 H   0  0  0  0  0  0  0  0  0  0  0  0
    2.0362    9.0409    0.4156 H   0  0  0  0  0  0  0  0  0  0  0  0
    1.5652    7.4734   -0.1583 H   0  0  0  0  0  0  0  0  0  0  0  0
    4.4149    8.5214    1.9773 H   0  0  0  0  0  0  0  0  0  0  0  0
    3.6441    7.8988    3.4526 H   0  0  0  0  0  0  0  0  0  0  0  0
    2.9694    9.2934    2.6406 H   0  0  0  0  0  0  0  0  0  0  0  0
    2.1531    5.5744    1.0796 H   0  0  0  0  0  0  0  0  0  0  0  0
    3.8790    5.5555    3.2821 H   0  0  0  0  0  0  0  0  0  0  0  0
    3.4152    4.0598   -0.1009 H   0  0  0  0  0  0  0  0  0  0  0  0
    4.0479    6.1969   -0.8670 H   0  0  0  0  0  0  0  0  0  0  0  0
    5.5888    6.0520   -1.7082 H   0  0  0  0  0  0  0  0  0  0  0  0
    5.3278    7.3710   -0.5535 H   0  0  0  0  0  0  0  0  0  0  0  0
    7.6473    4.9397    1.2142 H   0  0  0  0  0  0  0  0  0  0  0  0
    7.6787    5.3296   -0.5076 H   0  0  0  0  0  0  0  0  0  0  0  0
    7.4930    6.6209    0.6911 H   0  0  0  0  0  0  0  0  0  0  0  0
    3.3305    1.8549   -0.6010 H   0  0  0  0  0  0  0  0  0  0  0  0
    4.7192    1.4404    0.4180 H   0  0  0  0  0  0  0  0  0  0  0  0
    3.3968    1.1050    2.2462 H   0  0  0  0  0  0  0  0  0  0  0  0
    4.7301    3.1494    3.9709 H   0  0  0  0  0  0  0  0  0  0  0  0
    5.9937    3.8492    2.9562 H   0  0  0  0  0  0  0  0  0  0  0  0
    5.4319    2.2292    2.6373 H   0  0  0  0  0  0  0  0  0  0  0  0
    1.5829    0.5344    0.3706 H   0  0  0  0  0  0  0  0  0  0  0  0
    0.8003    1.9850    0.9341 H   0  0  0  0  0  0  0  0  0  0  0  0
    0.1639   -1.5202    2.4871 H   0  0  0  0  0  0  0  0  0  0  0  0
    1.6584   -1.4089    1.5670 H   0  0  0  0  0  0  0  0  0  0  0  0
    1.7179   -1.2832    3.3173 H   0  0  0  0  0  0  0  0  0  0  0  0
    0.2128    2.0750    3.3361 H   0  0  0  0  0  0  0  0  0  0  0  0
  1  6  1  0  0  0  0
  1  2  1  0  0  0  0
  2  3  1  0  0  0  0
  2 32  1  1  0  0  0
  3  4  1  0  0  0  0
  4  7  1  0  0  0  0
  5  4  1  0  0  0  0
  6  5  1  0  0  0  0
  6 34  1  0  0  0  0
  7 37  1  0  0  0  0
  7 35  1  0  0  0  0
  7 36  1  0  0  0  0
  8  4  1  0  0  0  0
  8 38  1  0  0  0  0
  8 39  1  0  0  0  0
  9  1  1  0  0  0  0
  9 41  1  0  0  0  0
 10 45  1  0  0  0  0
 10  1  1  0  0  0  0
 11  2  1  0  0  0  0
 11 12  1  0  0  0  0
 12 13  1  0  0  0  0
 13 51  1  0  0  0  0
 13 50  1  0  0  0  0
 14 12  2  0  0  0  0
 14 15  1  0  0  0  0
 15 17  1  6  0  0  0
 15 53  1  0  0  0  0
 16 15  1  0  0  0  0
 17 18  1  6  0  0  0
 17 25  1  0  0  0  0
 17 26  1  0  0  0  0
 18 54  1  6  0  0  0
 19 20  1  0  0  0  0
 19 18  1  0  0  0  0
 20 22  1  0  0  0  0
 20 16  1  0  0  0  0
 21 57  1  0  0  0  0
 21 20  1  0  0  0  0
 22 60  1  0  0  0  0
 22 58  1  0  0  0  0
 23 62  1  0  0  0  0
 23 18  1  0  0  0  0
 23 24  1  0  0  0  0
 24 63  1  1  0  0  0
 24 25  1  0  0  0  0
 26 65  1  0  0  0  0
 26 64  1  0  0  0  0
 27 24  1  0  0  0  0
 27 28  1  0  0  0  0
 28 29  1  0  0  0  0
 28 30  2  0  0  0  0
 29 69  1  0  0  0  0
 29 71  1  0  0  0  0
 30 31  1  0  0  0  0
 33  6  1  0  0  0  0
 40  8  1  0  0  0  0
 42  9  1  0  0  0  0
 43  9  1  0  0  0  0
 44 10  1  0  0  0  0
 46 10  1  0  0  0  0
 47 11  1  0  0  0  0
 48 11  1  0  0  0  0
 49 13  1  0  0  0  0
 52 14  1  0  0  0  0
 55 21  1  0  0  0  0
 56 21  1  0  0  0  0
 59 22  1  0  0  0  0
 61 23  1  0  0  0  0
 66 26  1  0  0  0  0
 67 27  1  0  0  0  0
 68 27  1  0  0  0  0
 70 29  1  0  0  0  0
 72 30  1  0  0  0  0
M  END
$$$$
