
 OpenBabel11301903583D

 77 80  0  0  1  0  0  0  0  0999 V2000
   -3.4597    2.0799    3.7652 C   0  0  1  0  0  0  0  0  0  0  0  0
   -2.5802    1.0868    2.9097 C   0  0  2  0  0  0  0  0  0  0  0  0
   -1.2887    0.8591    3.7719 C   0  0  1  0  0  0  0  0  0  0  0  0
   -1.3996    1.7803    5.0245 C   0  0  0  0  0  0  0  0  0  0  0  0
   -2.4211    2.8446    4.6264 C   0  0  0  0  0  0  0  0  0  0  0  0
   -1.4277   -0.5610    4.1442 C   0  0  0  0  0  0  0  0  0  0  0  0
   -2.4083   -1.2051    3.4918 O   0  0  0  0  0  0  0  0  0  0  0  0
   -3.1758   -0.3488    2.6589 C   0  0  2  0  0  0  0  0  0  0  0  0
   -0.7037   -1.1483    4.9809 O   0  0  0  0  0  0  0  0  0  0  0  0
   -3.2558   -0.8385    1.2566 C   0  0  0  0  0  0  0  0  0  0  0  0
   -4.4453   -0.7274    0.6221 C   0  0  0  0  0  0  0  0  0  0  0  0
   -2.1581   -1.5618    0.5635 C   0  0  0  0  0  0  0  0  0  0  0  0
   -0.8965   -0.8702    0.3509 O   0  0  0  0  0  0  0  0  0  0  0  0
    0.4400   -1.6480   -0.3103 Si  0  0  0  0  0  0  0  0  0  0  0  0
    1.5070   -0.3850   -0.7893 C   0  0  0  0  0  0  0  0  0  0  0  0
   -0.0234   -2.6181   -1.7561 C   0  0  0  0  0  0  0  0  0  0  0  0
    1.1606   -2.6117    0.9212 C   0  0  0  0  0  0  0  0  0  0  0  0
   -0.7305   -1.6869   -2.8063 C   0  0  0  0  0  0  0  0  0  0  0  0
   -0.9463   -3.8458   -1.3873 C   0  0  0  0  0  0  0  0  0  0  0  0
    1.1949   -3.2313   -2.5393 C   0  0  0  0  0  0  0  0  0  0  0  0
    2.8554   -0.6193   -1.1714 C   0  0  0  0  0  0  0  0  0  0  0  0
    3.7072    0.4251   -1.5724 C   0  0  0  0  0  0  0  0  0  0  0  0
    3.2302    1.7435   -1.6048 C   0  0  0  0  0  0  0  0  0  0  0  0
    1.9045    2.0095   -1.2270 C   0  0  0  0  0  0  0  0  0  0  0  0
    1.0532    0.9600   -0.8333 C   0  0  0  0  0  0  0  0  0  0  0  0
    2.3425   -3.3778    0.7351 C   0  0  0  0  0  0  0  0  0  0  0  0
    2.9366   -4.1058    1.7839 C   0  0  0  0  0  0  0  0  0  0  0  0
    2.3505   -4.1073    3.0585 C   0  0  0  0  0  0  0  0  0  0  0  0
    1.1717   -3.3820    3.2745 C   0  0  0  0  0  0  0  0  0  0  0  0
    0.6023   -2.6466    2.2219 C   0  0  0  0  0  0  0  0  0  0  0  0
   -0.0043    1.1242    3.0490 C   0  0  0  0  0  0  0  0  0  0  0  0
   -4.4290    3.0670    3.0103 C   0  0  0  0  0  0  0  0  0  0  0  0
   -5.4149    2.3341    2.0617 C   0  0  0  0  0  0  0  0  0  0  0  0
   -5.2408    3.9560    4.0050 C   0  0  0  0  0  0  0  0  0  0  0  0
    0.1025    2.1296    2.3045 O   0  0  0  0  0  0  0  0  0  0  0  0
    1.0825    0.3242    3.2819 O   0  0  0  0  0  0  0  0  0  0  0  0
    2.4127    0.4711    2.7800 C   0  0  0  0  0  0  0  0  0  0  0  0
   -4.0690    1.4927    4.4628 H   0  0  0  0  0  0  0  0  0  0  0  0
   -2.3465    1.5648    1.9534 H   0  0  0  0  0  0  0  0  0  0  0  0
   -1.7822    1.2457    5.9016 H   0  0  0  0  0  0  0  0  0  0  0  0
   -0.4506    2.2462    5.3087 H   0  0  0  0  0  0  0  0  0  0  0  0
   -2.8665    3.2863    5.5231 H   0  0  0  0  0  0  0  0  0  0  0  0
   -1.9304    3.6350    4.0484 H   0  0  0  0  0  0  0  0  0  0  0  0
   -4.1723   -0.3982    3.1098 H   0  0  0  0  0  0  0  0  0  0  0  0
   -4.5823   -1.0453   -0.3091 H   0  0  0  0  0  0  0  0  0  0  0  0
   -5.2398   -0.3466    1.0724 H   0  0  0  0  0  0  0  0  0  0  0  0
   -2.0062   -2.5025    1.0936 H   0  0  0  0  0  0  0  0  0  0  0  0
   -2.5079   -1.8290   -0.4265 H   0  0  0  0  0  0  0  0  0  0  0  0
   -0.0349   -0.9486   -3.2195 H   0  0  0  0  0  0  0  0  0  0  0  0
   -1.5705   -1.1376   -2.3831 H   0  0  0  0  0  0  0  0  0  0  0  0
   -1.1163   -2.2779   -3.6427 H   0  0  0  0  0  0  0  0  0  0  0  0
   -2.0041   -3.6202   -1.5015 H   0  0  0  0  0  0  0  0  0  0  0  0
   -0.7767   -4.1929   -0.3663 H   0  0  0  0  0  0  0  0  0  0  0  0
   -0.7839   -4.7090   -2.0364 H   0  0  0  0  0  0  0  0  0  0  0  0
    0.8539   -3.7487   -3.4418 H   0  0  0  0  0  0  0  0  0  0  0  0
    1.7195   -3.9812   -1.9544 H   0  0  0  0  0  0  0  0  0  0  0  0
    1.9018   -2.4761   -2.8761 H   0  0  0  0  0  0  0  0  0  0  0  0
    3.2539   -1.5520   -1.1796 H   0  0  0  0  0  0  0  0  0  0  0  0
    4.6736    0.2256   -1.8440 H   0  0  0  0  0  0  0  0  0  0  0  0
    3.8460    2.5034   -1.9067 H   0  0  0  0  0  0  0  0  0  0  0  0
    1.5571    2.9693   -1.2412 H   0  0  0  0  0  0  0  0  0  0  0  0
    0.0940    1.2040   -0.5821 H   0  0  0  0  0  0  0  0  0  0  0  0
    2.8160   -3.4230   -0.1587 H   0  0  0  0  0  0  0  0  0  0  0  0
    3.7970   -4.6347    1.6209 H   0  0  0  0  0  0  0  0  0  0  0  0
    2.7771   -4.6323    3.8262 H   0  0  0  0  0  0  0  0  0  0  0  0
    0.7310   -3.3833    4.1960 H   0  0  0  0  0  0  0  0  0  0  0  0
   -0.2276   -2.1205    2.4380 H   0  0  0  0  0  0  0  0  0  0  0  0
   -3.8287    3.7408    2.3893 H   0  0  0  0  0  0  0  0  0  0  0  0
   -5.8928    1.4977    2.5772 H   0  0  0  0  0  0  0  0  0  0  0  0
   -6.1963    3.0068    1.7023 H   0  0  0  0  0  0  0  0  0  0  0  0
   -4.8797    1.9706    1.1860 H   0  0  0  0  0  0  0  0  0  0  0  0
   -4.5801    4.6025    4.5831 H   0  0  0  0  0  0  0  0  0  0  0  0
   -5.9351    4.6077    3.4715 H   0  0  0  0  0  0  0  0  0  0  0  0
   -5.8132    3.3345    4.6973 H   0  0  0  0  0  0  0  0  0  0  0  0
    2.4271    0.9475    1.8003 H   0  0  0  0  0  0  0  0  0  0  0  0
    2.8690   -0.5155    2.7036 H   0  0  0  0  0  0  0  0  0  0  0  0
    2.9976    1.0715    3.4789 H   0  0  0  0  0  0  0  0  0  0  0  0
  1  2  1  6  0  0  0
  1 38  1  0  0  0  0
  1  5  1  0  0  0  0
  2  8  1  6  0  0  0
  3  2  1  6  0  0  0
  3  6  1  0  0  0  0
  3  4  1  0  0  0  0
  4 41  1  0  0  0  0
  4 40  1  0  0  0  0
  5  4  1  0  0  0  0
  5 42  1  0  0  0  0
  6  9  2  0  0  0  0
  7  6  1  0  0  0  0
  8 44  1  1  0  0  0
  8  7  1  0  0  0  0
 10  8  1  0  0  0  0
 11 46  1  0  0  0  0
 11 10  2  0  0  0  0
 12 47  1  0  0  0  0
 12 10  1  0  0  0  0
 13 12  1  0  0  0  0
 14 13  1  0  0  0  0
 14 17  1  0  0  0  0
 15 14  1  0  0  0  0
 16 19  1  0  0  0  0
 16 14  1  0  0  0  0
 17 30  1  0  0  0  0
 18 50  1  0  0  0  0
 18 16  1  0  0  0  0
 19 53  1  0  0  0  0
 20 56  1  0  0  0  0
 20 16  1  0  0  0  0
 21 15  2  0  0  0  0
 22 21  1  0  0  0  0
 23 22  2  0  0  0  0
 23 24  1  0  0  0  0
 24 25  2  0  0  0  0
 25 15  1  0  0  0  0
 25 62  1  0  0  0  0
 26 17  2  0  0  0  0
 26 27  1  0  0  0  0
 27 28  2  0  0  0  0
 28 29  1  0  0  0  0
 28 65  1  0  0  0  0
 29 66  1  0  0  0  0
 30 67  1  0  0  0  0
 30 29  2  0  0  0  0
 31 36  1  0  0  0  0
 31  3  1  0  0  0  0
 32  1  1  0  0  0  0
 32 34  1  0  0  0  0
 33 69  1  0  0  0  0
 33 32  1  0  0  0  0
 34 72  1  0  0  0  0
 34 74  1  0  0  0  0
 35 31  2  0  0  0  0
 37 36  1  0  0  0  0
 37 77  1  0  0  0  0
 39  2  1  0  0  0  0
 43  5  1  0  0  0  0
 45 11  1  0  0  0  0
 48 12  1  0  0  0  0
 49 18  1  0  0  0  0
 51 18  1  0  0  0  0
 52 19  1  0  0  0  0
 54 19  1  0  0  0  0
 55 20  1  0  0  0  0
 57 20  1  0  0  0  0
 58 21  1  0  0  0  0
 59 22  1  0  0  0  0
 60 23  1  0  0  0  0
 61 24  1  0  0  0  0
 63 26  1  0  0  0  0
 64 27  1  0  0  0  0
 68 32  1  0  0  0  0
 70 33  1  0  0  0  0
 71 33  1  0  0  0  0
 73 34  1  0  0  0  0
 75 37  1  0  0  0  0
 76 37  1  0  0  0  0
M  END
$$$$
