
 OpenBabel11301903583D

 77 80  0  0  1  0  0  0  0  0999 V2000
   -4.2502   -2.9252    2.9604 C   0  0  1  0  0  0  0  0  0  0  0  0
   -3.8877   -1.5335    3.5895 C   0  0  2  0  0  0  0  0  0  0  0  0
   -3.0574   -1.8378    4.8796 C   0  0  1  0  0  0  0  0  0  0  0  0
   -2.8312   -3.3787    4.8817 C   0  0  0  0  0  0  0  0  0  0  0  0
   -4.0233   -3.9513    4.0994 C   0  0  0  0  0  0  0  0  0  0  0  0
   -1.7959   -1.1156    4.6276 C   0  0  0  0  0  0  0  0  0  0  0  0
   -1.8043   -0.3977    3.4913 O   0  0  0  0  0  0  0  0  0  0  0  0
   -3.0331   -0.4937    2.7790 C   0  0  1  0  0  0  0  0  0  0  0  0
   -0.7907   -1.1572    5.3737 O   0  0  0  0  0  0  0  0  0  0  0  0
   -2.8086   -0.7219    1.3406 C   0  0  0  0  0  0  0  0  0  0  0  0
   -3.5417   -0.0562    0.4270 C   0  0  0  0  0  0  0  0  0  0  0  0
   -1.7685   -1.6395    0.8661 C   0  0  0  0  0  0  0  0  0  0  0  0
   -0.7408   -0.8682    0.2182 O   0  0  0  0  0  0  0  0  0  0  0  0
    0.6143   -1.5892   -0.4084 Si  0  0  0  0  0  0  0  0  0  0  0  0
    1.6436   -0.2826   -0.8321 C   0  0  0  0  0  0  0  0  0  0  0  0
    0.1586   -2.4896   -1.8929 C   0  0  0  0  0  0  0  0  0  0  0  0
    1.3770   -2.4867    0.8365 C   0  0  0  0  0  0  0  0  0  0  0  0
   -0.9157   -1.6615   -2.6865 C   0  0  0  0  0  0  0  0  0  0  0  0
   -0.4585   -3.9170   -1.6360 C   0  0  0  0  0  0  0  0  0  0  0  0
    1.3865   -2.6374   -2.8646 C   0  0  0  0  0  0  0  0  0  0  0  0
    3.0458   -0.4611   -0.9462 C   0  0  0  0  0  0  0  0  0  0  0  0
    3.8853    0.6186   -1.2811 C   0  0  0  0  0  0  0  0  0  0  0  0
    3.3362    1.8922   -1.5101 C   0  0  0  0  0  0  0  0  0  0  0  0
    1.9495    2.0884   -1.4003 C   0  0  0  0  0  0  0  0  0  0  0  0
    1.1104    1.0089   -1.0690 C   0  0  0  0  0  0  0  0  0  0  0  0
    2.1225   -3.6720    0.6125 C   0  0  0  0  0  0  0  0  0  0  0  0
    2.7316   -4.3658    1.6739 C   0  0  0  0  0  0  0  0  0  0  0  0
    2.6473   -3.8627    2.9815 C   0  0  0  0  0  0  0  0  0  0  0  0
    1.9625   -2.6606    3.2224 C   0  0  0  0  0  0  0  0  0  0  0  0
    1.3428   -1.9779    2.1600 C   0  0  0  0  0  0  0  0  0  0  0  0
   -3.7427   -1.3749    6.1293 C   0  0  0  0  0  0  0  0  0  0  0  0
   -5.6438   -3.0155    2.2339 C   0  0  0  0  0  0  0  0  0  0  0  0
   -5.7229   -4.2632    1.3052 C   0  0  0  0  0  0  0  0  0  0  0  0
   -6.8931   -2.9714    3.1664 C   0  0  0  0  0  0  0  0  0  0  0  0
   -4.8769   -1.8316    6.4107 O   0  0  0  0  0  0  0  0  0  0  0  0
   -3.1506   -0.4806    6.9805 O   0  0  0  0  0  0  0  0  0  0  0  0
   -3.6974    0.0369    8.1976 C   0  0  0  0  0  0  0  0  0  0  0  0
   -3.4951   -3.1666    2.2111 H   0  0  0  0  0  0  0  0  0  0  0  0
   -4.8248   -1.0346    3.8475 H   0  0  0  0  0  0  0  0  0  0  0  0
   -1.9101   -3.6560    4.3566 H   0  0  0  0  0  0  0  0  0  0  0  0
   -2.7777   -3.7966    5.8906 H   0  0  0  0  0  0  0  0  0  0  0  0
   -3.7949   -4.9460    3.7070 H   0  0  0  0  0  0  0  0  0  0  0  0
   -4.8893   -4.0257    4.7599 H   0  0  0  0  0  0  0  0  0  0  0  0
   -3.4874    0.4937    2.9220 H   0  0  0  0  0  0  0  0  0  0  0  0
   -3.3916   -0.1864   -0.5445 H   0  0  0  0  0  0  0  0  0  0  0  0
   -4.2479    0.5864    0.6972 H   0  0  0  0  0  0  0  0  0  0  0  0
   -1.3529   -2.2195    1.6914 H   0  0  0  0  0  0  0  0  0  0  0  0
   -2.2323   -2.3441    0.1799 H   0  0  0  0  0  0  0  0  0  0  0  0
   -0.5535   -0.6610   -2.9324 H   0  0  0  0  0  0  0  0  0  0  0  0
   -1.8446   -1.5502   -2.1268 H   0  0  0  0  0  0  0  0  0  0  0  0
   -1.1724   -2.1551   -3.6271 H   0  0  0  0  0  0  0  0  0  0  0  0
   -1.4627   -3.8728   -1.2205 H   0  0  0  0  0  0  0  0  0  0  0  0
    0.1379   -4.5264   -0.9641 H   0  0  0  0  0  0  0  0  0  0  0  0
   -0.5437   -4.4735   -2.5733 H   0  0  0  0  0  0  0  0  0  0  0  0
    1.1140   -3.1999   -3.7616 H   0  0  0  0  0  0  0  0  0  0  0  0
    2.2196   -3.1587   -2.3969 H   0  0  0  0  0  0  0  0  0  0  0  0
    1.7504   -1.6648   -3.2090 H   0  0  0  0  0  0  0  0  0  0  0  0
    3.4761   -1.3765   -0.7934 H   0  0  0  0  0  0  0  0  0  0  0  0
    4.8947    0.4770   -1.3621 H   0  0  0  0  0  0  0  0  0  0  0  0
    3.9449    2.6742   -1.7602 H   0  0  0  0  0  0  0  0  0  0  0  0
    1.5491    3.0148   -1.5676 H   0  0  0  0  0  0  0  0  0  0  0  0
    0.1046    1.1854   -1.0124 H   0  0  0  0  0  0  0  0  0  0  0  0
    2.2565   -4.0491   -0.3222 H   0  0  0  0  0  0  0  0  0  0  0  0
    3.2374   -5.2371    1.4953 H   0  0  0  0  0  0  0  0  0  0  0  0
    3.0825   -4.3668    3.7565 H   0  0  0  0  0  0  0  0  0  0  0  0
    1.9161   -2.2789    4.1704 H   0  0  0  0  0  0  0  0  0  0  0  0
    0.8659   -1.0974    2.3702 H   0  0  0  0  0  0  0  0  0  0  0  0
   -5.7126   -2.1437    1.5774 H   0  0  0  0  0  0  0  0  0  0  0  0
   -5.6070   -5.1853    1.8794 H   0  0  0  0  0  0  0  0  0  0  0  0
   -6.6831   -4.2993    0.7870 H   0  0  0  0  0  0  0  0  0  0  0  0
   -4.9363   -4.2274    0.5484 H   0  0  0  0  0  0  0  0  0  0  0  0
   -6.8108   -2.1785    3.9102 H   0  0  0  0  0  0  0  0  0  0  0  0
   -7.7915   -2.7795    2.5752 H   0  0  0  0  0  0  0  0  0  0  0  0
   -7.0287   -3.9215    3.6892 H   0  0  0  0  0  0  0  0  0  0  0  0
   -4.6068    0.6053    7.9956 H   0  0  0  0  0  0  0  0  0  0  0  0
   -2.9635    0.6975    8.6587 H   0  0  0  0  0  0  0  0  0  0  0  0
   -3.9228   -0.7764    8.8891 H   0  0  0  0  0  0  0  0  0  0  0  0
  1  2  1  1  0  0  0
  1  5  1  0  0  0  0
  2  8  1  6  0  0  0
  2 39  1  0  0  0  0
  3  2  1  6  0  0  0
  3  4  1  0  0  0  0
  3 31  1  0  0  0  0
  4 41  1  0  0  0  0
  5 43  1  0  0  0  0
  5  4  1  0  0  0  0
  6  3  1  0  0  0  0
  6  9  2  0  0  0  0
  7  6  1  0  0  0  0
  8 44  1  1  0  0  0
  8  7  1  0  0  0  0
 10  8  1  0  0  0  0
 11 46  1  0  0  0  0
 11 10  2  0  0  0  0
 12 10  1  0  0  0  0
 12 47  1  0  0  0  0
 13 12  1  0  0  0  0
 14 13  1  0  0  0  0
 14 17  1  0  0  0  0
 15 14  1  0  0  0  0
 16 19  1  0  0  0  0
 16 14  1  0  0  0  0
 17 30  1  0  0  0  0
 18 50  1  0  0  0  0
 18 16  1  0  0  0  0
 19 52  1  0  0  0  0
 19 53  1  0  0  0  0
 20 56  1  0  0  0  0
 20 16  1  0  0  0  0
 21 15  1  0  0  0  0
 21 58  1  0  0  0  0
 22 21  2  0  0  0  0
 23 24  2  0  0  0  0
 23 22  1  0  0  0  0
 24 25  1  0  0  0  0
 25 62  1  0  0  0  0
 25 15  2  0  0  0  0
 26 17  2  0  0  0  0
 26 27  1  0  0  0  0
 27 28  2  0  0  0  0
 28 29  1  0  0  0  0
 28 65  1  0  0  0  0
 29 66  1  0  0  0  0
 30 67  1  0  0  0  0
 30 29  2  0  0  0  0
 31 35  2  0  0  0  0
 31 36  1  0  0  0  0
 32  1  1  0  0  0  0
 32 34  1  0  0  0  0
 33 69  1  0  0  0  0
 33 32  1  0  0  0  0
 34 74  1  0  0  0  0
 34 72  1  0  0  0  0
 36 37  1  0  0  0  0
 37 76  1  0  0  0  0
 37 77  1  0  0  0  0
 38  1  1  0  0  0  0
 40  4  1  0  0  0  0
 42  5  1  0  0  0  0
 45 11  1  0  0  0  0
 48 12  1  0  0  0  0
 49 18  1  0  0  0  0
 51 18  1  0  0  0  0
 54 19  1  0  0  0  0
 55 20  1  0  0  0  0
 57 20  1  0  0  0  0
 59 22  1  0  0  0  0
 60 23  1  0  0  0  0
 61 24  1  0  0  0  0
 63 26  1  0  0  0  0
 64 27  1  0  0  0  0
 68 32  1  0  0  0  0
 70 33  1  0  0  0  0
 71 33  1  0  0  0  0
 73 34  1  0  0  0  0
 75 37  1  0  0  0  0
M  END
$$$$
