
 OpenBabel11301903593D

 77 80  0  0  1  0  0  0  0  0999 V2000
   -5.0033   -1.8604    4.2199 C   0  0  1  0  0  0  0  0  0  0  0  0
   -3.5405   -1.4168    3.9021 C   0  0  1  0  0  0  0  0  0  0  0  0
   -2.8130   -1.3248    5.2691 C   0  0  1  0  0  0  0  0  0  0  0  0
   -3.1784   -2.7404    5.7939 C   0  0  0  0  0  0  0  0  0  0  0  0
   -4.6905   -2.8422    5.4176 C   0  0  0  0  0  0  0  0  0  0  0  0
   -1.4902   -0.9613    4.7467 C   0  0  0  0  0  0  0  0  0  0  0  0
   -1.5962   -0.2960    3.5597 O   0  0  0  0  0  0  0  0  0  0  0  0
   -2.9360   -0.2703    3.0370 C   0  0  1  0  0  0  0  0  0  0  0  0
   -0.4057   -1.1496    5.3408 O   0  0  0  0  0  0  0  0  0  0  0  0
   -2.9405   -0.4233    1.5671 C   0  0  0  0  0  0  0  0  0  0  0  0
   -3.6338    0.4496    0.8079 C   0  0  0  0  0  0  0  0  0  0  0  0
   -2.1381   -1.4532    0.8895 C   0  0  0  0  0  0  0  0  0  0  0  0
   -0.8726   -0.8603    0.5460 O   0  0  0  0  0  0  0  0  0  0  0  0
    0.3988   -1.6461   -0.1856 Si  0  0  0  0  0  0  0  0  0  0  0  0
    1.4375   -0.3405   -0.6210 C   0  0  0  0  0  0  0  0  0  0  0  0
   -0.1522   -2.5085   -1.6622 C   0  0  0  0  0  0  0  0  0  0  0  0
    1.1589   -2.6719    0.9675 C   0  0  0  0  0  0  0  0  0  0  0  0
   -1.0262   -1.5422   -2.5398 C   0  0  0  0  0  0  0  0  0  0  0  0
   -0.9578   -3.8166   -1.3290 C   0  0  0  0  0  0  0  0  0  0  0  0
    1.0307   -2.9564   -2.5970 C   0  0  0  0  0  0  0  0  0  0  0  0
    2.8229   -0.5021   -0.8823 C   0  0  0  0  0  0  0  0  0  0  0  0
    3.6435    0.5936   -1.2170 C   0  0  0  0  0  0  0  0  0  0  0  0
    3.0987    1.8844   -1.2962 C   0  0  0  0  0  0  0  0  0  0  0  0
    1.7323    2.0761   -1.0429 C   0  0  0  0  0  0  0  0  0  0  0  0
    0.9125    0.9772   -0.7218 C   0  0  0  0  0  0  0  0  0  0  0  0
    2.2782   -3.4871    0.6508 C   0  0  0  0  0  0  0  0  0  0  0  0
    2.9329   -4.2696    1.6214 C   0  0  0  0  0  0  0  0  0  0  0  0
    2.4651   -4.2898    2.9432 C   0  0  0  0  0  0  0  0  0  0  0  0
    1.3502   -3.5129    3.2884 C   0  0  0  0  0  0  0  0  0  0  0  0
    0.7257   -2.7062    2.3177 C   0  0  0  0  0  0  0  0  0  0  0  0
   -3.2171   -0.2337    6.2181 C   0  0  0  0  0  0  0  0  0  0  0  0
   -6.1436   -0.8212    4.5517 C   0  0  0  0  0  0  0  0  0  0  0  0
   -7.5149   -1.5448    4.7475 C   0  0  0  0  0  0  0  0  0  0  0  0
   -6.3184    0.2898    3.4784 C   0  0  0  0  0  0  0  0  0  0  0  0
   -3.1902   -0.4305    7.4572 O   0  0  0  0  0  0  0  0  0  0  0  0
   -3.5790    1.0000    5.7550 O   0  0  0  0  0  0  0  0  0  0  0  0
   -4.0154    2.1211    6.5283 C   0  0  0  0  0  0  0  0  0  0  0  0
   -5.3643   -2.4433    3.3631 H   0  0  0  0  0  0  0  0  0  0  0  0
   -3.1679   -2.3036    3.3592 H   0  0  0  0  0  0  0  0  0  0  0  0
   -2.5966   -3.5169    5.2848 H   0  0  0  0  0  0  0  0  0  0  0  0
   -3.0163   -2.8627    6.8676 H   0  0  0  0  0  0  0  0  0  0  0  0
   -4.9410   -3.8708    5.1467 H   0  0  0  0  0  0  0  0  0  0  0  0
   -5.2686   -2.5807    6.3075 H   0  0  0  0  0  0  0  0  0  0  0  0
   -3.3350    0.6999    3.3266 H   0  0  0  0  0  0  0  0  0  0  0  0
   -3.6226    0.3950   -0.1839 H   0  0  0  0  0  0  0  0  0  0  0  0
   -4.1767    1.1761    1.2106 H   0  0  0  0  0  0  0  0  0  0  0  0
   -2.0000   -2.3382    1.5017 H   0  0  0  0  0  0  0  0  0  0  0  0
   -2.6772   -1.7751    0.0035 H   0  0  0  0  0  0  0  0  0  0  0  0
   -0.4360   -0.6948   -2.8985 H   0  0  0  0  0  0  0  0  0  0  0  0
   -1.8802   -1.1401   -2.0019 H   0  0  0  0  0  0  0  0  0  0  0  0
   -1.4212   -2.0618   -3.4165 H   0  0  0  0  0  0  0  0  0  0  0  0
   -1.9123   -3.6182   -0.8497 H   0  0  0  0  0  0  0  0  0  0  0  0
   -0.3803   -4.4750   -0.6734 H   0  0  0  0  0  0  0  0  0  0  0  0
   -1.1865   -4.3749   -2.2441 H   0  0  0  0  0  0  0  0  0  0  0  0
    0.6538   -3.2960   -3.5667 H   0  0  0  0  0  0  0  0  0  0  0  0
    1.5832   -3.7966   -2.1831 H   0  0  0  0  0  0  0  0  0  0  0  0
    1.7249   -2.1413   -2.7991 H   0  0  0  0  0  0  0  0  0  0  0  0
    3.2665   -1.4151   -0.8426 H   0  0  0  0  0  0  0  0  0  0  0  0
    4.6395    0.4502   -1.4044 H   0  0  0  0  0  0  0  0  0  0  0  0
    3.6936    2.6825   -1.5370 H   0  0  0  0  0  0  0  0  0  0  0  0
    1.3327    3.0172   -1.0943 H   0  0  0  0  0  0  0  0  0  0  0  0
   -0.0799    1.1707   -0.5685 H   0  0  0  0  0  0  0  0  0  0  0  0
    2.6596   -3.5226   -0.2881 H   0  0  0  0  0  0  0  0  0  0  0  0
    3.7547   -4.8218    1.3662 H   0  0  0  0  0  0  0  0  0  0  0  0
    2.9364   -4.8613    3.6503 H   0  0  0  0  0  0  0  0  0  0  0  0
    1.0027   -3.5275    4.2498 H   0  0  0  0  0  0  0  0  0  0  0  0
   -0.0464   -2.1323    2.6309 H   0  0  0  0  0  0  0  0  0  0  0  0
   -5.9160   -0.3240    5.4978 H   0  0  0  0  0  0  0  0  0  0  0  0
   -8.2824   -0.8345    5.0665 H   0  0  0  0  0  0  0  0  0  0  0  0
   -7.8411   -2.0131    3.8153 H   0  0  0  0  0  0  0  0  0  0  0  0
   -7.4530   -2.3183    5.5144 H   0  0  0  0  0  0  0  0  0  0  0  0
   -5.5121    1.0140    3.5455 H   0  0  0  0  0  0  0  0  0  0  0  0
   -6.3397   -0.1393    2.4744 H   0  0  0  0  0  0  0  0  0  0  0  0
   -7.2458    0.8463    3.6367 H   0  0  0  0  0  0  0  0  0  0  0  0
   -4.9345    1.8805    7.0652 H   0  0  0  0  0  0  0  0  0  0  0  0
   -4.2093    2.9553    5.8541 H   0  0  0  0  0  0  0  0  0  0  0  0
   -3.2439    2.4143    7.2420 H   0  0  0  0  0  0  0  0  0  0  0  0
  1  2  1  6  0  0  0
  1 32  1  0  0  0  0
  1  5  1  0  0  0  0
  2  8  1  6  0  0  0
  3  2  1  6  0  0  0
  3  4  1  0  0  0  0
  3 31  1  0  0  0  0
  4 41  1  0  0  0  0
  5  4  1  0  0  0  0
  5 43  1  0  0  0  0
  6  3  1  0  0  0  0
  6  9  2  0  0  0  0
  7  6  1  0  0  0  0
  8 44  1  1  0  0  0
  8  7  1  0  0  0  0
 10  8  1  0  0  0  0
 11 46  1  0  0  0  0
 11 10  2  0  0  0  0
 12 47  1  0  0  0  0
 12 10  1  0  0  0  0
 13 12  1  0  0  0  0
 14 13  1  0  0  0  0
 14 17  1  0  0  0  0
 15 14  1  0  0  0  0
 16 19  1  0  0  0  0
 16 14  1  0  0  0  0
 17 30  1  0  0  0  0
 18 50  1  0  0  0  0
 18 16  1  0  0  0  0
 19 52  1  0  0  0  0
 19 53  1  0  0  0  0
 20 56  1  0  0  0  0
 20 16  1  0  0  0  0
 21 58  1  0  0  0  0
 21 15  2  0  0  0  0
 22 21  1  0  0  0  0
 23 22  2  0  0  0  0
 23 24  1  0  0  0  0
 24 25  2  0  0  0  0
 25 15  1  0  0  0  0
 25 62  1  0  0  0  0
 26 17  2  0  0  0  0
 26 27  1  0  0  0  0
 27 28  2  0  0  0  0
 28 29  1  0  0  0  0
 28 65  1  0  0  0  0
 29 66  1  0  0  0  0
 30 67  1  0  0  0  0
 30 29  2  0  0  0  0
 31 35  2  0  0  0  0
 32 33  1  0  0  0  0
 32 68  1  0  0  0  0
 33 69  1  0  0  0  0
 33 71  1  0  0  0  0
 34 72  1  0  0  0  0
 34 74  1  0  0  0  0
 34 32  1  0  0  0  0
 36 31  1  0  0  0  0
 36 37  1  0  0  0  0
 37 75  1  0  0  0  0
 37 77  1  0  0  0  0
 38  1  1  0  0  0  0
 39  2  1  0  0  0  0
 40  4  1  0  0  0  0
 42  5  1  0  0  0  0
 45 11  1  0  0  0  0
 48 12  1  0  0  0  0
 49 18  1  0  0  0  0
 51 18  1  0  0  0  0
 54 19  1  0  0  0  0
 55 20  1  0  0  0  0
 57 20  1  0  0  0  0
 59 22  1  0  0  0  0
 60 23  1  0  0  0  0
 61 24  1  0  0  0  0
 63 26  1  0  0  0  0
 64 27  1  0  0  0  0
 70 33  1  0  0  0  0
 73 34  1  0  0  0  0
 76 37  1  0  0  0  0
M  END
$$$$
