
 OpenBabel11301903593D

 77 80  0  0  1  0  0  0  0  0999 V2000
   -5.2664   -1.0552    4.1379 C   0  0  1  0  0  0  0  0  0  0  0  0
   -3.8572   -1.3919    3.5521 C   0  0  1  0  0  0  0  0  0  0  0  0
   -2.9903   -1.8130    4.7828 C   0  0  2  0  0  0  0  0  0  0  0  0
   -3.7940   -1.3512    6.0405 C   0  0  0  0  0  0  0  0  0  0  0  0
   -4.9154   -0.4359    5.5104 C   0  0  0  0  0  0  0  0  0  0  0  0
   -1.7781   -0.9865    4.6238 C   0  0  0  0  0  0  0  0  0  0  0  0
   -1.8385   -0.1354    3.5907 O   0  0  0  0  0  0  0  0  0  0  0  0
   -3.0626   -0.2212    2.8732 C   0  0  1  0  0  0  0  0  0  0  0  0
   -0.7876   -1.0149    5.3894 O   0  0  0  0  0  0  0  0  0  0  0  0
   -2.8001   -0.4230    1.4431 C   0  0  0  0  0  0  0  0  0  0  0  0
   -3.3809    0.3726    0.5226 C   0  0  0  0  0  0  0  0  0  0  0  0
   -1.8922   -1.4828    1.0020 C   0  0  0  0  0  0  0  0  0  0  0  0
   -0.7955   -0.8179    0.3532 O   0  0  0  0  0  0  0  0  0  0  0  0
    0.4951   -1.6273   -0.2901 Si  0  0  0  0  0  0  0  0  0  0  0  0
    1.5651   -0.3780   -0.7839 C   0  0  0  0  0  0  0  0  0  0  0  0
   -0.0555   -2.5570   -1.7240 C   0  0  0  0  0  0  0  0  0  0  0  0
    1.2499   -2.5162    0.9685 C   0  0  0  0  0  0  0  0  0  0  0  0
   -1.1631   -1.7424   -2.4865 C   0  0  0  0  0  0  0  0  0  0  0  0
   -0.6494   -3.9681   -1.3748 C   0  0  0  0  0  0  0  0  0  0  0  0
    1.1042   -2.7737   -2.7603 C   0  0  0  0  0  0  0  0  0  0  0  0
    2.9605   -0.6045   -0.8987 C   0  0  0  0  0  0  0  0  0  0  0  0
    3.8345    0.4381   -1.2587 C   0  0  0  0  0  0  0  0  0  0  0  0
    3.3291    1.7250   -1.5092 C   0  0  0  0  0  0  0  0  0  0  0  0
    1.9484    1.9632   -1.4203 C   0  0  0  0  0  0  0  0  0  0  0  0
    1.0741    0.9222   -1.0603 C   0  0  0  0  0  0  0  0  0  0  0  0
    2.0379   -3.6689    0.7309 C   0  0  0  0  0  0  0  0  0  0  0  0
    2.6796   -4.3518    1.7820 C   0  0  0  0  0  0  0  0  0  0  0  0
    2.5756   -3.8740    3.0973 C   0  0  0  0  0  0  0  0  0  0  0  0
    1.8367   -2.7084    3.3581 C   0  0  0  0  0  0  0  0  0  0  0  0
    1.1913   -2.0325    2.3022 C   0  0  0  0  0  0  0  0  0  0  0  0
   -2.6944   -3.2793    4.7793 C   0  0  0  0  0  0  0  0  0  0  0  0
   -6.2669   -0.2411    3.2384 C   0  0  0  0  0  0  0  0  0  0  0  0
   -7.6007    0.0780    3.9763 C   0  0  0  0  0  0  0  0  0  0  0  0
   -6.5855   -1.0119    1.9243 C   0  0  0  0  0  0  0  0  0  0  0  0
   -3.6487   -4.0934    4.8086 O   0  0  0  0  0  0  0  0  0  0  0  0
   -1.4100   -3.7473    4.7228 O   0  0  0  0  0  0  0  0  0  0  0  0
   -1.0124   -5.1199    4.7137 C   0  0  0  0  0  0  0  0  0  0  0  0
   -5.7668   -2.0112    4.3477 H   0  0  0  0  0  0  0  0  0  0  0  0
   -3.9779   -2.2258    2.8476 H   0  0  0  0  0  0  0  0  0  0  0  0
   -4.2570   -2.2023    6.5494 H   0  0  0  0  0  0  0  0  0  0  0  0
   -3.1813   -0.8262    6.7787 H   0  0  0  0  0  0  0  0  0  0  0  0
   -5.7673   -0.4443    6.1959 H   0  0  0  0  0  0  0  0  0  0  0  0
   -4.5562    0.5935    5.3981 H   0  0  0  0  0  0  0  0  0  0  0  0
   -3.5518    0.7381    3.0563 H   0  0  0  0  0  0  0  0  0  0  0  0
   -3.2158    0.2390   -0.4454 H   0  0  0  0  0  0  0  0  0  0  0  0
   -3.9911    1.1111    0.7817 H   0  0  0  0  0  0  0  0  0  0  0  0
   -1.5415   -2.0896    1.8392 H   0  0  0  0  0  0  0  0  0  0  0  0
   -2.4354   -2.1389    0.3270 H   0  0  0  0  0  0  0  0  0  0  0  0
   -0.8052   -0.7503   -2.7755 H   0  0  0  0  0  0  0  0  0  0  0  0
   -2.0621   -1.6132   -1.8844 H   0  0  0  0  0  0  0  0  0  0  0  0
   -1.4713   -2.2588   -3.4000 H   0  0  0  0  0  0  0  0  0  0  0  0
   -1.4828   -3.9074   -0.6806 H   0  0  0  0  0  0  0  0  0  0  0  0
    0.0945   -4.6257   -0.9351 H   0  0  0  0  0  0  0  0  0  0  0  0
   -1.0156   -4.4684   -2.2762 H   0  0  0  0  0  0  0  0  0  0  0  0
    0.7506   -3.3400   -3.6272 H   0  0  0  0  0  0  0  0  0  0  0  0
    1.9372   -3.3274   -2.3334 H   0  0  0  0  0  0  0  0  0  0  0  0
    1.4882   -1.8225   -3.1384 H   0  0  0  0  0  0  0  0  0  0  0  0
    3.3645   -1.5260   -0.7202 H   0  0  0  0  0  0  0  0  0  0  0  0
    4.8388    0.2624   -1.3365 H   0  0  0  0  0  0  0  0  0  0  0  0
    3.9635    2.4885   -1.7530 H   0  0  0  0  0  0  0  0  0  0  0  0
    1.5772    2.8944   -1.6170 H   0  0  0  0  0  0  0  0  0  0  0  0
    0.0764    1.1376   -1.0040 H   0  0  0  0  0  0  0  0  0  0  0  0
    2.1809   -4.0292   -0.2079 H   0  0  0  0  0  0  0  0  0  0  0  0
    3.2291   -5.1914    1.5848 H   0  0  0  0  0  0  0  0  0  0  0  0
    3.0466   -4.3674    3.8613 H   0  0  0  0  0  0  0  0  0  0  0  0
    1.7793   -2.3482    4.3142 H   0  0  0  0  0  0  0  0  0  0  0  0
    0.6910   -1.1698    2.5275 H   0  0  0  0  0  0  0  0  0  0  0  0
   -5.8290    0.7218    2.9654 H   0  0  0  0  0  0  0  0  0  0  0  0
   -8.2897    0.6120    3.3174 H   0  0  0  0  0  0  0  0  0  0  0  0
   -8.0842   -0.8436    4.3106 H   0  0  0  0  0  0  0  0  0  0  0  0
   -7.4222    0.7143    4.8441 H   0  0  0  0  0  0  0  0  0  0  0  0
   -5.6821   -1.1730    1.3385 H   0  0  0  0  0  0  0  0  0  0  0  0
   -7.0249   -1.9859    2.1503 H   0  0  0  0  0  0  0  0  0  0  0  0
   -7.2863   -0.4483    1.3040 H   0  0  0  0  0  0  0  0  0  0  0  0
   -1.3536   -5.6149    5.6254 H   0  0  0  0  0  0  0  0  0  0  0  0
    0.0749   -5.1735    4.6670 H   0  0  0  0  0  0  0  0  0  0  0  0
   -1.4333   -5.6267    3.8432 H   0  0  0  0  0  0  0  0  0  0  0  0
  1  2  1  6  0  0  0
  1 38  1  0  0  0  0
  1  5  1  0  0  0  0
  2  8  1  6  0  0  0
  3  2  1  6  0  0  0
  3  4  1  0  0  0  0
  4 40  1  0  0  0  0
  4 41  1  0  0  0  0
  5  4  1  0  0  0  0
  5 42  1  0  0  0  0
  6  3  1  0  0  0  0
  6  9  2  0  0  0  0
  7  6  1  0  0  0  0
  8 44  1  1  0  0  0
  8  7  1  0  0  0  0
 10  8  1  0  0  0  0
 11 46  1  0  0  0  0
 11 10  2  0  0  0  0
 12 10  1  0  0  0  0
 12 47  1  0  0  0  0
 13 12  1  0  0  0  0
 14 13  1  0  0  0  0
 14 17  1  0  0  0  0
 15 14  1  0  0  0  0
 16 19  1  0  0  0  0
 16 14  1  0  0  0  0
 17 30  1  0  0  0  0
 18 50  1  0  0  0  0
 18 16  1  0  0  0  0
 19 53  1  0  0  0  0
 19 52  1  0  0  0  0
 20 56  1  0  0  0  0
 20 16  1  0  0  0  0
 21 15  1  0  0  0  0
 21 58  1  0  0  0  0
 22 21  2  0  0  0  0
 23 24  2  0  0  0  0
 23 22  1  0  0  0  0
 24 25  1  0  0  0  0
 25 62  1  0  0  0  0
 25 15  2  0  0  0  0
 26 17  2  0  0  0  0
 26 27  1  0  0  0  0
 27 28  2  0  0  0  0
 28 29  1  0  0  0  0
 28 65  1  0  0  0  0
 29 66  1  0  0  0  0
 30 67  1  0  0  0  0
 30 29  2  0  0  0  0
 31  3  1  0  0  0  0
 31 35  2  0  0  0  0
 32 33  1  0  0  0  0
 32  1  1  0  0  0  0
 33 70  1  0  0  0  0
 33 71  1  0  0  0  0
 34 73  1  0  0  0  0
 34 32  1  0  0  0  0
 36 31  1  0  0  0  0
 37 36  1  0  0  0  0
 37 75  1  0  0  0  0
 39  2  1  0  0  0  0
 43  5  1  0  0  0  0
 45 11  1  0  0  0  0
 48 12  1  0  0  0  0
 49 18  1  0  0  0  0
 51 18  1  0  0  0  0
 54 19  1  0  0  0  0
 55 20  1  0  0  0  0
 57 20  1  0  0  0  0
 59 22  1  0  0  0  0
 60 23  1  0  0  0  0
 61 24  1  0  0  0  0
 63 26  1  0  0  0  0
 64 27  1  0  0  0  0
 68 32  1  0  0  0  0
 69 33  1  0  0  0  0
 72 34  1  0  0  0  0
 74 34  1  0  0  0  0
 76 37  1  0  0  0  0
 77 37  1  0  0  0  0
M  END
$$$$
