
     RDKit          3D

 39 40  0  0  1  0  0  0  0  0999 V2000
    1.9343   -0.8835   -0.3694 C   0  0  2  0  0  0  0  0  0  0  0  0
    2.8803   -0.6032   -1.5388 C   0  0  0  0  0  0  0  0  0  0  0  0
    4.3322   -0.5905   -1.1413 C   0  0  0  0  0  0  0  0  0  0  0  0
    5.2436   -1.5419   -1.3923 C   0  0  0  0  0  0  0  0  0  0  0  0
    4.9492   -2.7539   -2.0709 C   0  0  0  0  0  0  0  0  0  0  0  0
    4.7066   -3.7812   -2.6424 C   0  0  0  0  0  0  0  0  0  0  0  0
    0.5711   -0.8737   -0.8391 O   0  0  0  0  0  0  0  0  0  0  0  0
   -0.2690   -0.2985    0.1802 C   0  0  1  0  0  0  0  0  0  0  0  0
    0.6282   -0.0289    1.3840 C   0  0  0  0  0  0  0  0  0  0  0  0
    1.9882    0.1405    0.7525 C   0  0  0  0  0  0  0  0  0  0  0  0
   -0.9416    0.9773   -0.3674 C   0  0  1  0  0  0  0  0  0  0  0  0
   -1.0346   -1.0318    0.4583 H   0  0  0  0  0  0  0  0  0  0  0  0
   -1.8110    0.7234   -1.5928 C   0  0  0  0  0  0  0  0  0  0  0  0
   -3.1459    0.4031   -0.9717 C   0  0  1  0  0  0  0  0  0  0  0  0
   -3.1854    1.3502    0.2175 C   0  0  2  0  0  0  0  0  0  0  0  0
   -1.8155    1.5280    0.6379 O   0  0  0  0  0  0  0  0  0  0  0  0
   -0.1748    1.7213   -0.6123 H   0  0  0  0  0  0  0  0  0  0  0  0
   -4.5988    0.7147   -2.2110 Br  0  0  0  0  0  0  0  0  0  0  0  0
   -4.0147    0.8119    1.3841 C   0  0  0  0  0  0  0  0  0  0  0  0
   -4.0594    1.7855    2.5542 C   0  0  0  0  0  0  0  0  0  0  0  0
    2.1240   -1.8879    0.0311 H   0  0  0  0  0  0  0  0  0  0  0  0
    2.6856   -1.3314   -2.3353 H   0  0  0  0  0  0  0  0  0  0  0  0
    2.6325    0.3668   -1.9895 H   0  0  0  0  0  0  0  0  0  0  0  0
    4.6655    0.2982   -0.6078 H   0  0  0  0  0  0  0  0  0  0  0  0
    6.2676   -1.3998   -1.0569 H   0  0  0  0  0  0  0  0  0  0  0  0
    4.4874   -4.6911   -3.1508 H   0  0  0  0  0  0  0  0  0  0  0  0
    0.3231    0.8264    1.9928 H   0  0  0  0  0  0  0  0  0  0  0  0
    0.6405   -0.9121    2.0349 H   0  0  0  0  0  0  0  0  0  0  0  0
    2.8094   -0.0356    1.4529 H   0  0  0  0  0  0  0  0  0  0  0  0
    2.0870    1.1571    0.3539 H   0  0  0  0  0  0  0  0  0  0  0  0
   -1.8683    1.6453   -2.1864 H   0  0  0  0  0  0  0  0  0  0  0  0
   -1.4380   -0.0646   -2.2535 H   0  0  0  0  0  0  0  0  0  0  0  0
   -3.1977   -0.6480   -0.6690 H   0  0  0  0  0  0  0  0  0  0  0  0
   -3.5539    2.3427   -0.0713 H   0  0  0  0  0  0  0  0  0  0  0  0
   -3.5832   -0.1303    1.7431 H   0  0  0  0  0  0  0  0  0  0  0  0
   -5.0385    0.6041    1.0538 H   0  0  0  0  0  0  0  0  0  0  0  0
   -3.0590    1.9689    2.9585 H   0  0  0  0  0  0  0  0  0  0  0  0
   -4.4892    2.7448    2.2489 H   0  0  0  0  0  0  0  0  0  0  0  0
   -4.6780    1.3779    3.3601 H   0  0  0  0  0  0  0  0  0  0  0  0
  1 21  1  1
  1 10  1  0
  1  2  1  0
  2  3  1  0
  2 22  1  0
  3 24  1  0
  4  3  2  0
  4 25  1  0
  5  4  1  0
  6  5  3  0
  7  1  1  0
  8 12  1  1
  8  7  1  0
  8  9  1  0
  9 28  1  0
 10  9  1  0
 10 29  1  0
 11 17  1  6
 11  8  1  0
 11 16  1  0
 13 11  1  0
 13 32  1  0
 13 14  1  0
 14 15  1  0
 14 33  1  1
 15 34  1  6
 15 16  1  0
 15 19  1  0
 18 14  1  0
 19 35  1  0
 19 36  1  0
 20 19  1  0
 20 38  1  0
 20 37  1  0
 23  2  1  0
 26  6  1  0
 27  9  1  0
 30 10  1  0
 31 13  1  0
 39 20  1  0
M  END
$$$$
