
 OpenBabel10151511583D

 42 45  0  0  1  0  0  0  0  0999 V2000
   -1.8801   -1.5008   -2.1371 C   0  0  0  0  0  0  0  0  0  0  0  0
   -3.0514   -1.2884   -3.1158 C   0  0  0  0  0  0  0  0  0  0  0  0
   -3.7811    0.0616   -2.8436 C   0  0  2  0  0  0  0  0  0  0  0  0
   -4.3082    0.0092   -1.3641 C   0  0  1  0  0  0  0  0  0  0  0  0
   -3.1114    0.0208   -0.3048 C   0  0  1  0  0  0  0  0  0  0  0  0
   -2.1348   -1.2085   -0.6008 C   0  0  1  0  0  0  0  0  0  0  0  0
   -1.5388   -2.5366   -2.2447 H   0  0  0  0  0  0  0  0  0  0  0  0
   -1.0768   -0.8681   -2.5257 H   0  0  0  0  0  0  0  0  0  0  0  0
   -3.7490   -2.1282   -3.0283 H   0  0  0  0  0  0  0  0  0  0  0  0
   -2.6561   -1.3068   -4.1368 H   0  0  0  0  0  0  0  0  0  0  0  0
   -3.0612    0.8813   -2.9299 H   0  0  0  0  0  0  0  0  0  0  0  0
   -4.7356   -0.9970   -1.2585 H   0  0  0  0  0  0  0  0  0  0  0  0
   -2.6140   -2.1009   -0.1875 H   0  0  0  0  0  0  0  0  0  0  0  0
   -0.6968   -1.0629    0.0399 C   0  0  1  0  0  0  0  0  0  0  0  0
   -0.0531   -1.8526   -0.3674 H   0  0  0  0  0  0  0  0  0  0  0  0
   -0.6515   -1.2852    1.5751 C   0  0  0  0  0  0  0  0  0  0  0  0
   -1.2756   -0.5756    2.1142 H   0  0  0  0  0  0  0  0  0  0  0  0
   -0.9994   -2.2921    1.8116 H   0  0  0  0  0  0  0  0  0  0  0  0
    0.3742   -1.1908    1.9366 H   0  0  0  0  0  0  0  0  0  0  0  0
   -0.1146    0.2506   -0.3858 C   0  0  0  0  0  0  0  0  0  0  0  0
    1.1155    0.3900   -0.5681 O   0  0  0  0  0  0  0  0  0  0  0  0
   -0.9557    1.2926   -0.6998 O   0  0  0  0  0  0  0  0  0  0  0  0
   -2.2359    1.3133   -0.0650 C   0  0  1  0  0  0  0  0  0  0  0  0
   -3.8120   -0.0310    0.9729 O   0  0  0  0  0  0  0  0  0  0  0  0
   -1.9174    1.3611    0.9877 H   0  0  0  0  0  0  0  0  0  0  0  0
   -5.5935    0.8605   -1.0307 C   0  0  0  0  0  0  0  0  0  0  0  0
   -6.1544    0.3397   -0.2453 H   0  0  0  0  0  0  0  0  0  0  0  0
   -6.2872    0.8981   -1.8680 H   0  0  0  0  0  0  0  0  0  0  0  0
   -5.3694    2.2977   -0.5205 C   0  0  0  0  0  0  0  0  0  0  0  0
   -6.3183    2.6600   -0.1135 H   0  0  0  0  0  0  0  0  0  0  0  0
   -5.1072    2.9480   -1.3615 H   0  0  0  0  0  0  0  0  0  0  0  0
   -4.2677    2.3452    0.5725 C   0  0  1  0  0  0  0  0  0  0  0  0
   -3.0260    2.4905   -0.1737 O   0  0  0  0  0  0  0  0  0  0  0  0
   -4.3445    1.1459    1.4324 O   0  0  0  0  0  0  0  0  0  0  0  0
   -4.4044    3.5898    1.4805 C   0  0  0  0  0  0  0  0  0  0  0  0
   -3.5625    3.6360    2.1730 H   0  0  0  0  0  0  0  0  0  0  0  0
   -4.4137    4.5023    0.8823 H   0  0  0  0  0  0  0  0  0  0  0  0
   -5.3267    3.5384    2.0605 H   0  0  0  0  0  0  0  0  0  0  0  0
   -4.8374    0.2901   -3.9660 C   0  0  0  0  0  0  0  0  0  0  0  0
   -5.2510    1.2974   -3.9032 H   0  0  0  0  0  0  0  0  0  0  0  0
   -5.6500   -0.4363   -3.8932 H   0  0  0  0  0  0  0  0  0  0  0  0
   -4.3798    0.1957   -4.9533 H   0  0  0  0  0  0  0  0  0  0  0  0
  1  6  1  0  0  0  0
  2  9  1  0  0  0  0
  2  3  1  0  0  0  0
  2  1  1  0  0  0  0
  3 11  1  6  0  0  0
  3  4  1  0  0  0  0
  4 12  1  1  0  0  0
  4 26  1  0  0  0  0
  4  5  1  0  0  0  0
  5 23  1  0  0  0  0
  5 24  1  1  0  0  0
  6  5  1  0  0  0  0
  6 13  1  1  0  0  0
  6 14  1  0  0  0  0
  7  1  1  0  0  0  0
  8  1  1  0  0  0  0
 10  2  1  0  0  0  0
 14 15  1  6  0  0  0
 14 16  1  0  0  0  0
 16 18  1  0  0  0  0
 16 19  1  0  0  0  0
 16 17  1  0  0  0  0
 20 14  1  0  0  0  0
 21 20  2  0  0  0  0
 22 20  1  0  0  0  0
 22 23  1  0  0  0  0
 23 25  1  1  0  0  0
 24 34  1  0  0  0  0
 26 29  1  0  0  0  0
 26 27  1  0  0  0  0
 28 26  1  0  0  0  0
 29 30  1  0  0  0  0
 29 32  1  0  0  0  0
 31 29  1  0  0  0  0
 32 34  1  0  0  0  0
 32 35  1  1  0  0  0
 33 23  1  0  0  0  0
 33 32  1  0  0  0  0
 35 38  1  0  0  0  0
 35 36  1  0  0  0  0
 37 35  1  0  0  0  0
 39 40  1  0  0  0  0
 39 41  1  0  0  0  0
 39  3  1  0  0  0  0
 42 39  1  0  0  0  0
M  END
$$$$
