
 OpenBabel10151512003D

 42 45  0  0  1  0  0  0  0  0999 V2000
   -2.7982   -2.3010    1.2724 C   0  0  0  0  0  0  0  0  0  0  0  0
   -4.1964   -2.0282    1.8612 C   0  0  0  0  0  0  0  0  0  0  0  0
   -4.1384   -1.0611    3.0785 C   0  0  1  0  0  0  0  0  0  0  0  0
   -3.3144    0.2723    2.8262 C   0  0  2  0  0  0  0  0  0  0  0  0
   -1.9878    0.0330    1.9963 C   0  0  1  0  0  0  0  0  0  0  0  0
   -2.1447   -0.9740    0.7962 C   0  0  2  0  0  0  0  0  0  0  0  0
   -2.9208   -2.9878    0.4334 H   0  0  0  0  0  0  0  0  0  0  0  0
   -2.1685   -2.7943    2.0198 H   0  0  0  0  0  0  0  0  0  0  0  0
   -4.8453   -1.6190    1.0802 H   0  0  0  0  0  0  0  0  0  0  0  0
   -4.6216   -2.9875    2.1758 H   0  0  0  0  0  0  0  0  0  0  0  0
   -3.6361   -1.6306    3.8689 H   0  0  0  0  0  0  0  0  0  0  0  0
   -3.9473    0.9140    2.2040 H   0  0  0  0  0  0  0  0  0  0  0  0
   -2.8531   -0.5208    0.0905 H   0  0  0  0  0  0  0  0  0  0  0  0
   -0.8034   -1.2292    0.0046 C   0  0  2  0  0  0  0  0  0  0  0  0
   -0.2401   -2.0226    0.5076 H   0  0  0  0  0  0  0  0  0  0  0  0
   -1.0738   -1.6718   -1.4653 C   0  0  0  0  0  0  0  0  0  0  0  0
   -1.6535   -2.5935   -1.4918 H   0  0  0  0  0  0  0  0  0  0  0  0
   -1.6285   -0.8992   -2.0041 H   0  0  0  0  0  0  0  0  0  0  0  0
   -0.1395   -1.8547   -1.9990 H   0  0  0  0  0  0  0  0  0  0  0  0
    0.0794   -0.0360   -0.0131 C   0  0  0  0  0  0  0  0  0  0  0  0
    1.2190   -0.0938   -0.5289 O   0  0  0  0  0  0  0  0  0  0  0  0
   -0.3072    1.1544    0.5140 O   0  0  0  0  0  0  0  0  0  0  0  0
   -1.4451    1.3636    1.3590 C   0  0  2  0  0  0  0  0  0  0  0  0
   -1.0021   -0.4807    2.9248 O   0  0  0  0  0  0  0  0  0  0  0  0
   -2.2114    1.8489    0.7503 H   0  0  0  0  0  0  0  0  0  0  0  0
   -3.1098    1.0173    4.2129 C   0  0  0  0  0  0  0  0  0  0  0  0
   -3.0990    0.2681    5.0096 H   0  0  0  0  0  0  0  0  0  0  0  0
   -4.0059    1.6204    4.3947 H   0  0  0  0  0  0  0  0  0  0  0  0
   -1.8776    1.9342    4.5119 C   0  0  0  0  0  0  0  0  0  0  0  0
   -1.5582    1.7573    5.5451 H   0  0  0  0  0  0  0  0  0  0  0  0
   -2.1950    2.9806    4.4660 H   0  0  0  0  0  0  0  0  0  0  0  0
   -0.6375    1.7770    3.5960 C   0  0  1  0  0  0  0  0  0  0  0  0
   -1.0127    2.3250    2.3222 O   0  0  0  0  0  0  0  0  0  0  0  0
   -0.1830    0.4036    3.5127 O   0  0  0  0  0  0  0  0  0  0  0  0
    0.5597    2.6203    4.0950 C   0  0  0  0  0  0  0  0  0  0  0  0
    1.3868    2.5460    3.3849 H   0  0  0  0  0  0  0  0  0  0  0  0
    0.2818    3.6725    4.1909 H   0  0  0  0  0  0  0  0  0  0  0  0
    0.9014    2.2558    5.0653 H   0  0  0  0  0  0  0  0  0  0  0  0
   -5.5966   -0.7966    3.5664 C   0  0  0  0  0  0  0  0  0  0  0  0
   -5.6122   -0.2073    4.4835 H   0  0  0  0  0  0  0  0  0  0  0  0
   -6.1050   -1.7407    3.7767 H   0  0  0  0  0  0  0  0  0  0  0  0
   -6.1622   -0.2619    2.8002 H   0  0  0  0  0  0  0  0  0  0  0  0
  1  2  1  0  0  0  0
  1  8  1  0  0  0  0
  2 10  1  0  0  0  0
  2  3  1  0  0  0  0
  3 39  1  0  0  0  0
  3 11  1  1  0  0  0
  4 12  1  6  0  0  0
  4  3  1  0  0  0  0
  4 26  1  0  0  0  0
  5  4  1  0  0  0  0
  5 24  1  1  0  0  0
  6 13  1  6  0  0  0
  6  1  1  0  0  0  0
  6  5  1  0  0  0  0
  7  1  1  0  0  0  0
  9  2  1  0  0  0  0
 14 15  1  1  0  0  0
 14  6  1  0  0  0  0
 16 14  1  0  0  0  0
 17 16  1  0  0  0  0
 18 16  1  0  0  0  0
 19 16  1  0  0  0  0
 20 14  1  0  0  0  0
 20 22  1  0  0  0  0
 21 20  2  0  0  0  0
 22 23  1  0  0  0  0
 23 25  1  6  0  0  0
 23  5  1  0  0  0  0
 23 33  1  0  0  0  0
 24 34  1  0  0  0  0
 26 28  1  0  0  0  0
 26 29  1  0  0  0  0
 26 27  1  0  0  0  0
 29 30  1  0  0  0  0
 31 29  1  0  0  0  0
 32 35  1  1  0  0  0
 32 29  1  0  0  0  0
 33 32  1  0  0  0  0
 34 32  1  0  0  0  0
 35 37  1  0  0  0  0
 35 38  1  0  0  0  0
 36 35  1  0  0  0  0
 39 41  1  0  0  0  0
 39 40  1  0  0  0  0
 42 39  1  0  0  0  0
M  END
$$$$
