
 OpenBabel10151511593D

 42 45  0  0  1  0  0  0  0  0999 V2000
   -1.7680   -1.1465   -2.4141 C   0  0  0  0  0  0  0  0  0  0  0  0
   -3.0009   -1.0374   -3.3359 C   0  0  0  0  0  0  0  0  0  0  0  0
   -3.8696    0.2092   -3.0120 C   0  0  1  0  0  0  0  0  0  0  0  0
   -4.2657    0.1753   -1.4985 C   0  0  1  0  0  0  0  0  0  0  0  0
   -3.0475    0.1258   -0.4643 C   0  0  1  0  0  0  0  0  0  0  0  0
   -2.0583   -1.0599   -0.8606 C   0  0  1  0  0  0  0  0  0  0  0  0
   -1.2698   -2.0940   -2.6368 H   0  0  0  0  0  0  0  0  0  0  0  0
   -1.0886   -0.3551   -2.7317 H   0  0  0  0  0  0  0  0  0  0  0  0
   -3.6063   -1.9393   -3.2075 H   0  0  0  0  0  0  0  0  0  0  0  0
   -2.6886   -1.0141   -4.3848 H   0  0  0  0  0  0  0  0  0  0  0  0
   -4.7803    0.0743   -3.6054 H   0  0  0  0  0  0  0  0  0  0  0  0
   -4.6897   -0.8344   -1.4034 H   0  0  0  0  0  0  0  0  0  0  0  0
   -2.5458   -1.9953   -0.5657 H   0  0  0  0  0  0  0  0  0  0  0  0
   -0.6852   -0.9474   -0.0876 C   0  0  2  0  0  0  0  0  0  0  0  0
   -0.9169   -0.8725    0.9805 H   0  0  0  0  0  0  0  0  0  0  0  0
    0.2418   -2.1877   -0.2171 C   0  0  0  0  0  0  0  0  0  0  0  0
   -0.3292   -3.1035   -0.0525 H   0  0  0  0  0  0  0  0  0  0  0  0
    0.7070   -2.2360   -1.2030 H   0  0  0  0  0  0  0  0  0  0  0  0
    1.0323   -2.1384    0.5353 H   0  0  0  0  0  0  0  0  0  0  0  0
   -0.0573    0.3537   -0.5002 C   0  0  0  0  0  0  0  0  0  0  0  0
    1.1550    0.4691   -0.7889 O   0  0  0  0  0  0  0  0  0  0  0  0
   -0.8835    1.4390   -0.6933 O   0  0  0  0  0  0  0  0  0  0  0  0
   -2.1839    1.3996   -0.0937 C   0  0  1  0  0  0  0  0  0  0  0  0
   -3.7471   -0.0481    0.8026 O   0  0  0  0  0  0  0  0  0  0  0  0
   -1.8842    1.3539    0.9677 H   0  0  0  0  0  0  0  0  0  0  0  0
   -5.5428    1.0400   -1.1610 C   0  0  0  0  0  0  0  0  0  0  0  0
   -6.1845    0.4498   -0.4961 H   0  0  0  0  0  0  0  0  0  0  0  0
   -6.1428    1.2120   -2.0583 H   0  0  0  0  0  0  0  0  0  0  0  0
   -5.3406    2.4032   -0.4570 C   0  0  0  0  0  0  0  0  0  0  0  0
   -6.2877    2.6867    0.0123 H   0  0  0  0  0  0  0  0  0  0  0  0
   -5.1119    3.1711   -1.2005 H   0  0  0  0  0  0  0  0  0  0  0  0
   -4.2216    2.3500    0.6118 C   0  0  1  0  0  0  0  0  0  0  0  0
   -2.9893    2.5661   -0.1339 O   0  0  0  0  0  0  0  0  0  0  0  0
   -4.3107    1.0741    1.3511 O   0  0  0  0  0  0  0  0  0  0  0  0
   -4.3102    3.5145    1.6243 C   0  0  0  0  0  0  0  0  0  0  0  0
   -3.4606    3.4695    2.3089 H   0  0  0  0  0  0  0  0  0  0  0  0
   -4.2863    4.4776    1.1087 H   0  0  0  0  0  0  0  0  0  0  0  0
   -5.2306    3.4463    2.2055 H   0  0  0  0  0  0  0  0  0  0  0  0
   -3.2635    1.5527   -3.4942 C   0  0  0  0  0  0  0  0  0  0  0  0
   -3.9914    2.3567   -3.3762 H   0  0  0  0  0  0  0  0  0  0  0  0
   -3.0044    1.4942   -4.5532 H   0  0  0  0  0  0  0  0  0  0  0  0
   -2.3671    1.8087   -2.9352 H   0  0  0  0  0  0  0  0  0  0  0  0
  1  6  1  0  0  0  0
  2  9  1  0  0  0  0
  2  3  1  0  0  0  0
  2  1  1  0  0  0  0
  3 11  1  6  0  0  0
  3  4  1  0  0  0  0
  4 12  1  1  0  0  0
  4 26  1  0  0  0  0
  4  5  1  0  0  0  0
  5 23  1  0  0  0  0
  5 24  1  1  0  0  0
  6 13  1  1  0  0  0
  6  5  1  0  0  0  0
  6 14  1  0  0  0  0
  7  1  1  0  0  0  0
  8  1  1  0  0  0  0
 10  2  1  0  0  0  0
 14 15  1  1  0  0  0
 16 14  1  0  0  0  0
 16 17  1  0  0  0  0
 16 19  1  0  0  0  0
 18 16  1  0  0  0  0
 20 14  1  0  0  0  0
 21 20  2  0  0  0  0
 22 20  1  0  0  0  0
 22 23  1  0  0  0  0
 23 25  1  1  0  0  0
 24 34  1  0  0  0  0
 26 27  1  0  0  0  0
 26 29  1  0  0  0  0
 28 26  1  0  0  0  0
 29 30  1  0  0  0  0
 29 32  1  0  0  0  0
 31 29  1  0  0  0  0
 32 34  1  0  0  0  0
 32 35  1  1  0  0  0
 33 23  1  0  0  0  0
 33 32  1  0  0  0  0
 35 38  1  0  0  0  0
 35 36  1  0  0  0  0
 37 35  1  0  0  0  0
 39 40  1  0  0  0  0
 39  3  1  0  0  0  0
 39 42  1  0  0  0  0
 41 39  1  0  0  0  0
M  END
$$$$
