
 OpenBabel10151511583D

 42 45  0  0  1  0  0  0  0  0999 V2000
   -2.2719   -2.5972   -1.5204 C   0  0  0  0  0  0  0  0  0  0  0  0
   -2.3442   -2.9436   -3.0314 C   0  0  0  0  0  0  0  0  0  0  0  0
   -2.8947   -1.7590   -3.8874 C   0  0  2  0  0  0  0  0  0  0  0  0
   -2.1257   -0.3825   -3.6091 C   0  0  2  0  0  0  0  0  0  0  0  0
   -2.0348   -0.0667   -2.0433 C   0  0  1  0  0  0  0  0  0  0  0  0
   -1.3693   -1.3432   -1.3478 C   0  0  2  0  0  0  0  0  0  0  0  0
   -1.8479   -3.4654   -1.0136 H   0  0  0  0  0  0  0  0  0  0  0  0
   -3.2670   -2.4180   -1.1046 H   0  0  0  0  0  0  0  0  0  0  0  0
   -1.3423   -3.2003   -3.3929 H   0  0  0  0  0  0  0  0  0  0  0  0
   -2.9447   -3.8471   -3.1613 H   0  0  0  0  0  0  0  0  0  0  0  0
   -2.6841   -2.0276   -4.9292 H   0  0  0  0  0  0  0  0  0  0  0  0
   -1.0860   -0.5265   -3.9270 H   0  0  0  0  0  0  0  0  0  0  0  0
   -0.4805   -1.5962   -1.9437 H   0  0  0  0  0  0  0  0  0  0  0  0
   -0.7185   -1.0740    0.0627 C   0  0  2  0  0  0  0  0  0  0  0  0
   -1.4777   -0.6383    0.7166 H   0  0  0  0  0  0  0  0  0  0  0  0
   -0.1537   -2.3224    0.7998 C   0  0  0  0  0  0  0  0  0  0  0  0
   -0.9613   -3.0003    1.0764 H   0  0  0  0  0  0  0  0  0  0  0  0
    0.5616   -2.8562    0.1688 H   0  0  0  0  0  0  0  0  0  0  0  0
    0.3449   -2.0242    1.7244 H   0  0  0  0  0  0  0  0  0  0  0  0
    0.3388   -0.0342   -0.1957 C   0  0  0  0  0  0  0  0  0  0  0  0
    1.5001   -0.1027    0.2640 O   0  0  0  0  0  0  0  0  0  0  0  0
    0.0585    0.9863   -1.0696 O   0  0  0  0  0  0  0  0  0  0  0  0
   -1.3041    1.2056   -1.4461 C   0  0  1  0  0  0  0  0  0  0  0  0
   -3.3870    0.2969   -1.6770 O   0  0  0  0  0  0  0  0  0  0  0  0
   -1.7589    1.4448   -0.4719 H   0  0  0  0  0  0  0  0  0  0  0  0
   -2.6810    0.7153   -4.5996 C   0  0  0  0  0  0  0  0  0  0  0  0
   -3.7376    0.5552   -4.7879 H   0  0  0  0  0  0  0  0  0  0  0  0
   -2.1895    0.5906   -5.5700 H   0  0  0  0  0  0  0  0  0  0  0  0
   -2.6082    2.2084   -4.2183 C   0  0  0  0  0  0  0  0  0  0  0  0
   -3.3476    2.7476   -4.8192 H   0  0  0  0  0  0  0  0  0  0  0  0
   -1.6310    2.6054   -4.5163 H   0  0  0  0  0  0  0  0  0  0  0  0
   -2.8733    2.4627   -2.7089 C   0  0  1  0  0  0  0  0  0  0  0  0
   -1.5407    2.4135   -2.1519 O   0  0  0  0  0  0  0  0  0  0  0  0
   -3.8335    1.4936   -2.1507 O   0  0  0  0  0  0  0  0  0  0  0  0
   -3.4450    3.8795   -2.4554 C   0  0  0  0  0  0  0  0  0  0  0  0
   -3.5598    4.0511   -1.3832 H   0  0  0  0  0  0  0  0  0  0  0  0
   -2.7780    4.6435   -2.8610 H   0  0  0  0  0  0  0  0  0  0  0  0
   -4.4247    3.9827   -2.9269 H   0  0  0  0  0  0  0  0  0  0  0  0
   -4.4626   -1.7556   -3.7763 C   0  0  0  0  0  0  0  0  0  0  0  0
   -4.9248   -1.2469   -4.6205 H   0  0  0  0  0  0  0  0  0  0  0  0
   -4.8062   -1.2920   -2.8547 H   0  0  0  0  0  0  0  0  0  0  0  0
   -4.8621   -2.7699   -3.7964 H   0  0  0  0  0  0  0  0  0  0  0  0
  1  6  1  0  0  0  0
  1  8  1  0  0  0  0
  1  7  1  0  0  0  0
  2  1  1  0  0  0  0
  3 11  1  6  0  0  0
  3 39  1  0  0  0  0
  3  4  1  0  0  0  0
  3  2  1  0  0  0  0
  4 12  1  6  0  0  0
  4  5  1  0  0  0  0
  5 24  1  1  0  0  0
  5 23  1  0  0  0  0
  5  6  1  0  0  0  0
  6 13  1  6  0  0  0
  6 14  1  0  0  0  0
  9  2  1  0  0  0  0
 10  2  1  0  0  0  0
 14 15  1  1  0  0  0
 14 16  1  0  0  0  0
 16 17  1  0  0  0  0
 16 19  1  0  0  0  0
 18 16  1  0  0  0  0
 20 14  1  0  0  0  0
 20 21  2  0  0  0  0
 22 20  1  0  0  0  0
 23 22  1  0  0  0  0
 23 25  1  1  0  0  0
 26 29  1  0  0  0  0
 26  4  1  0  0  0  0
 27 26  1  0  0  0  0
 28 26  1  0  0  0  0
 29 32  1  0  0  0  0
 30 29  1  0  0  0  0
 31 29  1  0  0  0  0
 32 35  1  1  0  0  0
 32 33  1  0  0  0  0
 32 34  1  0  0  0  0
 33 23  1  0  0  0  0
 34 24  1  0  0  0  0
 35 36  1  0  0  0  0
 37 35  1  0  0  0  0
 38 35  1  0  0  0  0
 39 41  1  0  0  0  0
 40 39  1  0  0  0  0
 42 39  1  0  0  0  0
M  END
$$$$
