
 OpenBabel10151511573D

 42 45  0  0  1  0  0  0  0  0999 V2000
   -1.8654   -1.4604   -2.2659 C   0  0  0  0  0  0  0  0  0  0  0  0
   -3.0655   -1.2244   -3.2118 C   0  0  0  0  0  0  0  0  0  0  0  0
   -3.8237    0.1021   -2.8982 C   0  0  2  0  0  0  0  0  0  0  0  0
   -4.2994    0.0271   -1.4032 C   0  0  1  0  0  0  0  0  0  0  0  0
   -3.0553    0.0676   -0.4037 C   0  0  1  0  0  0  0  0  0  0  0  0
   -2.0487   -1.1288   -0.7274 C   0  0  1  0  0  0  0  0  0  0  0  0
   -1.5734   -2.5104   -2.3580 H   0  0  0  0  0  0  0  0  0  0  0  0
   -1.0450   -0.8809   -2.6973 H   0  0  0  0  0  0  0  0  0  0  0  0
   -3.7527   -2.0751   -3.1360 H   0  0  0  0  0  0  0  0  0  0  0  0
   -2.6903   -1.2046   -4.2411 H   0  0  0  0  0  0  0  0  0  0  0  0
   -3.1298    0.9416   -3.0028 H   0  0  0  0  0  0  0  0  0  0  0  0
   -4.6935   -0.9928   -1.2962 H   0  0  0  0  0  0  0  0  0  0  0  0
   -2.4792   -2.0175   -0.2544 H   0  0  0  0  0  0  0  0  0  0  0  0
   -0.6168   -0.8801   -0.1006 C   0  0  2  0  0  0  0  0  0  0  0  0
   -0.7537   -0.7137    0.9727 H   0  0  0  0  0  0  0  0  0  0  0  0
    0.3674   -2.0785   -0.2103 C   0  0  0  0  0  0  0  0  0  0  0  0
   -0.0987   -2.9859    0.1801 H   0  0  0  0  0  0  0  0  0  0  0  0
    0.6630   -2.2538   -1.2460 H   0  0  0  0  0  0  0  0  0  0  0  0
    1.2700   -1.8746    0.3709 H   0  0  0  0  0  0  0  0  0  0  0  0
   -0.0927    0.3998   -0.6901 C   0  0  0  0  0  0  0  0  0  0  0  0
    1.0873    0.5415   -1.0836 O   0  0  0  0  0  0  0  0  0  0  0  0
   -0.9804    1.4276   -0.9076 O   0  0  0  0  0  0  0  0  0  0  0  0
   -2.2185    1.3939   -0.1919 C   0  0  1  0  0  0  0  0  0  0  0  0
   -3.6879   -0.0310    0.9039 O   0  0  0  0  0  0  0  0  0  0  0  0
   -1.8391    1.4269    0.8420 H   0  0  0  0  0  0  0  0  0  0  0  0
   -5.5910    0.8399   -0.9927 C   0  0  0  0  0  0  0  0  0  0  0  0
   -6.0947    0.2864   -0.1907 H   0  0  0  0  0  0  0  0  0  0  0  0
   -6.3262    0.8688   -1.7964 H   0  0  0  0  0  0  0  0  0  0  0  0
   -5.3885    2.2752   -0.4557 C   0  0  0  0  0  0  0  0  0  0  0  0
   -6.3256    2.6061    0.0014 H   0  0  0  0  0  0  0  0  0  0  0  0
   -5.1838    2.9464   -1.2954 H   0  0  0  0  0  0  0  0  0  0  0  0
   -4.2379    2.3369    0.5861 C   0  0  1  0  0  0  0  0  0  0  0  0
   -3.0452    2.5475   -0.2215 O   0  0  0  0  0  0  0  0  0  0  0  0
   -4.2317    1.1146    1.4153 O   0  0  0  0  0  0  0  0  0  0  0  0
   -4.3484    3.5398    1.5546 C   0  0  0  0  0  0  0  0  0  0  0  0
   -3.4735    3.5630    2.2081 H   0  0  0  0  0  0  0  0  0  0  0  0
   -4.3932    4.4825    1.0065 H   0  0  0  0  0  0  0  0  0  0  0  0
   -5.2395    3.4524    2.1791 H   0  0  0  0  0  0  0  0  0  0  0  0
   -4.9375    0.3067   -3.9678 C   0  0  0  0  0  0  0  0  0  0  0  0
   -5.3807    1.2989   -3.8714 H   0  0  0  0  0  0  0  0  0  0  0  0
   -5.7211   -0.4470   -3.8592 H   0  0  0  0  0  0  0  0  0  0  0  0
   -4.5245    0.2323   -4.9766 H   0  0  0  0  0  0  0  0  0  0  0  0
  1  6  1  0  0  0  0
  2  9  1  0  0  0  0
  2  3  1  0  0  0  0
  2  1  1  0  0  0  0
  3 11  1  6  0  0  0
  3  4  1  0  0  0  0
  4 12  1  1  0  0  0
  4 26  1  0  0  0  0
  4  5  1  0  0  0  0
  5 23  1  0  0  0  0
  5 24  1  1  0  0  0
  6  5  1  0  0  0  0
  6 13  1  1  0  0  0
  6 14  1  0  0  0  0
  7  1  1  0  0  0  0
  8  1  1  0  0  0  0
 10  2  1  0  0  0  0
 14 15  1  1  0  0  0
 16 14  1  0  0  0  0
 16 17  1  0  0  0  0
 16 19  1  0  0  0  0
 18 16  1  0  0  0  0
 20 14  1  0  0  0  0
 21 20  2  0  0  0  0
 22 20  1  0  0  0  0
 22 23  1  0  0  0  0
 23 25  1  1  0  0  0
 24 34  1  0  0  0  0
 26 29  1  0  0  0  0
 26 27  1  0  0  0  0
 28 26  1  0  0  0  0
 29 30  1  0  0  0  0
 29 32  1  0  0  0  0
 31 29  1  0  0  0  0
 32 34  1  0  0  0  0
 32 35  1  1  0  0  0
 33 23  1  0  0  0  0
 33 32  1  0  0  0  0
 35 38  1  0  0  0  0
 35 36  1  0  0  0  0
 37 35  1  0  0  0  0
 39 40  1  0  0  0  0
 39 41  1  0  0  0  0
 39  3  1  0  0  0  0
 42 39  1  0  0  0  0
M  END
$$$$
