
 OpenBabel09231910523D

 42 45  0  0  1  0  0  0  0  0999 V2000
   -2.6660   -0.9732   -1.6818 C   0  0  0  0  0  0  0  0  0  0  0  0
   -4.1927   -0.8042   -1.8822 C   0  0  0  0  0  0  0  0  0  0  0  0
   -4.8198    0.3720   -1.0661 C   0  0  2  0  0  0  0  0  0  0  0  0
   -4.3963    0.2670    0.4514 C   0  0  1  0  0  0  0  0  0  0  0  0
   -2.8258    0.1439    0.6393 C   0  0  1  0  0  0  0  0  0  0  0  0
   -2.2734   -1.0900   -0.1701 C   0  0  1  0  0  0  0  0  0  0  0  0
   -2.3729   -1.8795   -2.2188 H   0  0  0  0  0  0  0  0  0  0  0  0
   -2.1429   -0.1339   -2.1495 H   0  0  0  0  0  0  0  0  0  0  0  0
   -4.6798   -1.7413   -1.5935 H   0  0  0  0  0  0  0  0  0  0  0  0
   -4.3791   -0.6519   -2.9499 H   0  0  0  0  0  0  0  0  0  0  0  0
   -4.4410    1.3097   -1.4763 H   0  0  0  0  0  0  0  0  0  0  0  0
   -4.7998   -0.7025    0.7710 H   0  0  0  0  0  0  0  0  0  0  0  0
   -2.7658   -1.9905    0.2101 H   0  0  0  0  0  0  0  0  0  0  0  0
   -0.7331   -1.2984    0.0828 C   0  0  2  0  0  0  0  0  0  0  0  0
   -0.6145   -1.6035    1.1283 H   0  0  0  0  0  0  0  0  0  0  0  0
   -0.0948   -2.4413   -0.7584 C   0  0  0  0  0  0  0  0  0  0  0  0
   -0.6989   -3.3473   -0.6902 H   0  0  0  0  0  0  0  0  0  0  0  0
   -0.0038   -2.1538   -1.8066 H   0  0  0  0  0  0  0  0  0  0  0  0
    0.9043   -2.6713   -0.3874 H   0  0  0  0  0  0  0  0  0  0  0  0
    0.0109   -0.0229   -0.0563 C   0  0  0  0  0  0  0  0  0  0  0  0
    1.2609    0.0023   -0.1168 O   0  0  0  0  0  0  0  0  0  0  0  0
   -0.6285    1.1769   -0.0823 O   0  0  0  0  0  0  0  0  0  0  0  0
   -1.9991    1.4294    0.2527 C   0  0  2  0  0  0  0  0  0  0  0  0
   -2.5421   -0.0760    2.0457 O   0  0  0  0  0  0  0  0  0  0  0  0
   -2.4349    1.9254   -0.6112 H   0  0  0  0  0  0  0  0  0  0  0  0
   -5.0865    1.2925    1.4283 C   0  0  0  0  0  0  0  0  0  0  0  0
   -5.3102    0.7676    2.3634 H   0  0  0  0  0  0  0  0  0  0  0  0
   -6.0537    1.6155    1.0490 H   0  0  0  0  0  0  0  0  0  0  0  0
   -4.2945    2.5672    1.8166 C   0  0  0  0  0  0  0  0  0  0  0  0
   -4.8835    3.0920    2.5742 H   0  0  0  0  0  0  0  0  0  0  0  0
   -4.2319    3.2348    0.9535 H   0  0  0  0  0  0  0  0  0  0  0  0
   -2.8585    2.2699    2.3598 C   0  0  1  0  0  0  0  0  0  0  0  0
   -1.8910    2.4001    1.3070 O   0  0  0  0  0  0  0  0  0  0  0  0
   -2.7636    0.9327    2.9105 O   0  0  0  0  0  0  0  0  0  0  0  0
   -2.4436    3.2752    3.4612 C   0  0  0  0  0  0  0  0  0  0  0  0
   -1.4220    3.0807    3.7902 H   0  0  0  0  0  0  0  0  0  0  0  0
   -2.4937    4.2958    3.0778 H   0  0  0  0  0  0  0  0  0  0  0  0
   -3.1051    3.1936    4.3252 H   0  0  0  0  0  0  0  0  0  0  0  0
   -6.3631    0.3762   -1.3090 C   0  0  0  0  0  0  0  0  0  0  0  0
   -6.7924    1.3529   -1.0794 H   0  0  0  0  0  0  0  0  0  0  0  0
   -6.8553   -0.3817   -0.6955 H   0  0  0  0  0  0  0  0  0  0  0  0
   -6.5993    0.1742   -2.3551 H   0  0  0  0  0  0  0  0  0  0  0  0
  1  6  1  0  0  0  0
  2  1  1  0  0  0  0
  2  9  1  0  0  0  0
  2  3  1  0  0  0  0
  3  4  1  1  0  0  0
  4  5  1  1  0  0  0
  4 12  1  0  0  0  0
  4 26  1  0  0  0  0
  5  6  1  6  0  0  0
  5 24  1  0  0  0  0
  6 14  1  1  0  0  0
  6 13  1  0  0  0  0
  7  1  1  0  0  0  0
  8  1  1  0  0  0  0
 10  2  1  0  0  0  0
 11  3  1  0  0  0  0
 14 15  1  1  0  0  0
 16 17  1  0  0  0  0
 16 19  1  0  0  0  0
 16 14  1  0  0  0  0
 18 16  1  0  0  0  0
 20 14  1  0  0  0  0
 21 20  2  0  0  0  0
 22 20  1  0  0  0  0
 22 23  1  0  0  0  0
 23  5  1  1  0  0  0
 23 33  1  0  0  0  0
 24 34  1  0  0  0  0
 25 23  1  0  0  0  0
 26 29  1  0  0  0  0
 26 27  1  0  0  0  0
 28 26  1  0  0  0  0
 29 32  1  0  0  0  0
 29 30  1  0  0  0  0
 31 29  1  0  0  0  0
 32 34  1  0  0  0  0
 32 35  1  1  0  0  0
 33 32  1  0  0  0  0
 35 36  1  0  0  0  0
 35 38  1  0  0  0  0
 37 35  1  0  0  0  0
 39 40  1  0  0  0  0
 39  3  1  0  0  0  0
 39 41  1  0  0  0  0
 42 39  1  0  0  0  0
M  END
$$$$
