
 OpenBabel10151512013D

 42 45  0  0  1  0  0  0  0  0999 V2000
   -2.3606   -2.5658   -1.4540 C   0  0  0  0  0  0  0  0  0  0  0  0
   -2.3429   -2.9509   -2.9495 C   0  0  0  0  0  0  0  0  0  0  0  0
   -2.6828   -1.7580   -3.9005 C   0  0  1  0  0  0  0  0  0  0  0  0
   -1.9742   -0.3606   -3.5631 C   0  0  2  0  0  0  0  0  0  0  0  0
   -2.0618   -0.0562   -1.9953 C   0  0  1  0  0  0  0  0  0  0  0  0
   -1.4602   -1.3242   -1.2517 C   0  0  2  0  0  0  0  0  0  0  0  0
   -1.9816   -3.4106   -0.8734 H   0  0  0  0  0  0  0  0  0  0  0  0
   -3.3813   -2.3587   -1.1250 H   0  0  0  0  0  0  0  0  0  0  0  0
   -1.3558   -3.3517   -3.2001 H   0  0  0  0  0  0  0  0  0  0  0  0
   -3.0669   -3.7593   -3.0972 H   0  0  0  0  0  0  0  0  0  0  0  0
   -3.7617   -1.6113   -3.7735 H   0  0  0  0  0  0  0  0  0  0  0  0
   -0.9114   -0.4417   -3.8107 H   0  0  0  0  0  0  0  0  0  0  0  0
   -0.5318   -1.5681   -1.7910 H   0  0  0  0  0  0  0  0  0  0  0  0
   -0.8943   -1.1342    0.2004 C   0  0  1  0  0  0  0  0  0  0  0  0
   -0.3296   -2.0414    0.4579 H   0  0  0  0  0  0  0  0  0  0  0  0
   -1.9692   -0.9603    1.3073 C   0  0  0  0  0  0  0  0  0  0  0  0
   -2.6421   -0.1314    1.0924 H   0  0  0  0  0  0  0  0  0  0  0  0
   -2.5648   -1.8716    1.3891 H   0  0  0  0  0  0  0  0  0  0  0  0
   -1.4902   -0.7810    2.2732 H   0  0  0  0  0  0  0  0  0  0  0  0
    0.0851   -0.0072    0.1405 C   0  0  0  0  0  0  0  0  0  0  0  0
    1.1107   -0.0067    0.8589 O   0  0  0  0  0  0  0  0  0  0  0  0
   -0.0843    0.9903   -0.7888 O   0  0  0  0  0  0  0  0  0  0  0  0
   -1.3986    1.2102   -1.3189 C   0  0  1  0  0  0  0  0  0  0  0  0
   -3.4619    0.2550   -1.7784 O   0  0  0  0  0  0  0  0  0  0  0  0
   -1.9593    1.4479   -0.4036 H   0  0  0  0  0  0  0  0  0  0  0  0
   -2.5805    0.7113   -4.5561 C   0  0  0  0  0  0  0  0  0  0  0  0
   -3.6345    0.4809   -4.7395 H   0  0  0  0  0  0  0  0  0  0  0  0
   -2.0741    0.6133   -5.5217 H   0  0  0  0  0  0  0  0  0  0  0  0
   -2.5620    2.2108   -4.1861 C   0  0  0  0  0  0  0  0  0  0  0  0
   -3.3004    2.7160   -4.8199 H   0  0  0  0  0  0  0  0  0  0  0  0
   -1.5828    2.6323   -4.4430 H   0  0  0  0  0  0  0  0  0  0  0  0
   -2.8852    2.4626   -2.6886 C   0  0  1  0  0  0  0  0  0  0  0  0
   -1.5813    2.4125   -2.0552 O   0  0  0  0  0  0  0  0  0  0  0  0
   -3.8718    1.4901   -2.1846 O   0  0  0  0  0  0  0  0  0  0  0  0
   -3.4822    3.8745   -2.4578 C   0  0  0  0  0  0  0  0  0  0  0  0
   -3.6670    4.0283   -1.3925 H   0  0  0  0  0  0  0  0  0  0  0  0
   -2.7997    4.6526   -2.8098 H   0  0  0  0  0  0  0  0  0  0  0  0
   -4.4323    3.9757   -2.9889 H   0  0  0  0  0  0  0  0  0  0  0  0
   -2.4813   -2.2469   -5.3705 C   0  0  0  0  0  0  0  0  0  0  0  0
   -2.9523   -1.5692   -6.0836 H   0  0  0  0  0  0  0  0  0  0  0  0
   -2.9368   -3.2305   -5.5189 H   0  0  0  0  0  0  0  0  0  0  0  0
   -1.4172   -2.3210   -5.6037 H   0  0  0  0  0  0  0  0  0  0  0  0
  1  6  1  0  0  0  0
  1  8  1  0  0  0  0
  1  7  1  0  0  0  0
  2  1  1  0  0  0  0
  3 11  1  1  0  0  0
  3  4  1  0  0  0  0
  3  2  1  0  0  0  0
  4 12  1  6  0  0  0
  4  5  1  0  0  0  0
  5 24  1  1  0  0  0
  5 23  1  0  0  0  0
  5  6  1  0  0  0  0
  6 13  1  6  0  0  0
  6 14  1  0  0  0  0
  9  2  1  0  0  0  0
 10  2  1  0  0  0  0
 14 15  1  1  0  0  0
 14 16  1  0  0  0  0
 16 18  1  0  0  0  0
 16 19  1  0  0  0  0
 17 16  1  0  0  0  0
 20 14  1  0  0  0  0
 20 21  2  0  0  0  0
 22 20  1  0  0  0  0
 23 22  1  0  0  0  0
 23 25  1  1  0  0  0
 26 29  1  0  0  0  0
 26  4  1  0  0  0  0
 27 26  1  0  0  0  0
 28 26  1  0  0  0  0
 29 32  1  0  0  0  0
 30 29  1  0  0  0  0
 31 29  1  0  0  0  0
 32 35  1  1  0  0  0
 32 34  1  0  0  0  0
 32 33  1  0  0  0  0
 33 23  1  0  0  0  0
 34 24  1  0  0  0  0
 35 36  1  0  0  0  0
 37 35  1  0  0  0  0
 38 35  1  0  0  0  0
 39  3  1  0  0  0  0
 40 39  1  0  0  0  0
 41 39  1  0  0  0  0
 42 39  1  0  0  0  0
M  END
$$$$
