
 OpenBabel10151511593D

 42 45  0  0  1  0  0  0  0  0999 V2000
   -3.3051   -1.6547    0.7182 C   0  0  0  0  0  0  0  0  0  0  0  0
   -4.6485   -0.9620    1.1206 C   0  0  0  0  0  0  0  0  0  0  0  0
   -4.5043    0.3299    2.0081 C   0  0  1  0  0  0  0  0  0  0  0  0
   -3.1413    0.3220    2.7821 C   0  0  1  0  0  0  0  0  0  0  0  0
   -1.8650    0.1744    1.8431 C   0  0  1  0  0  0  0  0  0  0  0  0
   -2.1797   -0.6025    0.4993 C   0  0  2  0  0  0  0  0  0  0  0  0
   -2.9903   -2.3540    1.4970 H   0  0  0  0  0  0  0  0  0  0  0  0
   -3.4841   -2.2416   -0.1822 H   0  0  0  0  0  0  0  0  0  0  0  0
   -5.2038   -0.7212    0.2084 H   0  0  0  0  0  0  0  0  0  0  0  0
   -5.2471   -1.7029    1.6602 H   0  0  0  0  0  0  0  0  0  0  0  0
   -5.3017    0.2791    2.7601 H   0  0  0  0  0  0  0  0  0  0  0  0
   -3.1854   -0.6577    3.2774 H   0  0  0  0  0  0  0  0  0  0  0  0
   -2.6108    0.1098   -0.2138 H   0  0  0  0  0  0  0  0  0  0  0  0
   -0.8618   -1.0974   -0.2002 C   0  0  2  0  0  0  0  0  0  0  0  0
   -0.4046   -1.8782    0.4145 H   0  0  0  0  0  0  0  0  0  0  0  0
   -1.0859   -1.7000   -1.6187 C   0  0  0  0  0  0  0  0  0  0  0  0
   -1.6921   -2.6030   -1.5711 H   0  0  0  0  0  0  0  0  0  0  0  0
   -1.5779   -0.9831   -2.2772 H   0  0  0  0  0  0  0  0  0  0  0  0
   -0.1352   -1.9867   -2.0743 H   0  0  0  0  0  0  0  0  0  0  0  0
    0.0919    0.0486   -0.2695 C   0  0  0  0  0  0  0  0  0  0  0  0
    1.1825   -0.0504   -0.8762 O   0  0  0  0  0  0  0  0  0  0  0  0
   -0.1676    1.2488    0.3356 O   0  0  0  0  0  0  0  0  0  0  0  0
   -1.0830    1.4735    1.4261 C   0  0  2  0  0  0  0  0  0  0  0  0
   -0.8692   -0.5237    2.6378 O   0  0  0  0  0  0  0  0  0  0  0  0
   -1.7742    2.2623    1.1337 H   0  0  0  0  0  0  0  0  0  0  0  0
   -3.0844    1.2993    4.0204 C   0  0  0  0  0  0  0  0  0  0  0  0
   -3.1925    0.7023    4.9335 H   0  0  0  0  0  0  0  0  0  0  0  0
   -3.9473    1.9661    4.0236 H   0  0  0  0  0  0  0  0  0  0  0  0
   -1.8202    2.1733    4.2404 C   0  0  0  0  0  0  0  0  0  0  0  0
   -1.7716    2.4231    5.3055 H   0  0  0  0  0  0  0  0  0  0  0  0
   -1.9557    3.1237    3.7152 H   0  0  0  0  0  0  0  0  0  0  0  0
   -0.4789    1.5196    3.7749 C   0  0  1  0  0  0  0  0  0  0  0  0
   -0.1915    1.9760    2.4405 O   0  0  0  0  0  0  0  0  0  0  0  0
   -0.5425    0.0683    3.8019 O   0  0  0  0  0  0  0  0  0  0  0  0
    0.7153    1.9371    4.6644 C   0  0  0  0  0  0  0  0  0  0  0  0
    1.6348    1.4850    4.2874 H   0  0  0  0  0  0  0  0  0  0  0  0
    0.8377    3.0216    4.6640 H   0  0  0  0  0  0  0  0  0  0  0  0
    0.5623    1.5999    5.6921 H   0  0  0  0  0  0  0  0  0  0  0  0
   -4.7688    1.6508    1.2259 C   0  0  0  0  0  0  0  0  0  0  0  0
   -4.6683    2.5215    1.8759 H   0  0  0  0  0  0  0  0  0  0  0  0
   -5.7869    1.6507    0.8304 H   0  0  0  0  0  0  0  0  0  0  0  0
   -4.0826    1.7714    0.3921 H   0  0  0  0  0  0  0  0  0  0  0  0
  1  2  1  0  0  0  0
  1  7  1  0  0  0  0
  2 10  1  0  0  0  0
  2  3  1  0  0  0  0
  3 11  1  1  0  0  0
  3  4  1  0  0  0  0
  4 12  1  1  0  0  0
  4 26  1  0  0  0  0
  5 24  1  1  0  0  0
  5  4  1  0  0  0  0
  6 13  1  6  0  0  0
  6  1  1  0  0  0  0
  6  5  1  0  0  0  0
  8  1  1  0  0  0  0
  9  2  1  0  0  0  0
 14 15  1  1  0  0  0
 14  6  1  0  0  0  0
 16 17  1  0  0  0  0
 16 14  1  0  0  0  0
 18 16  1  0  0  0  0
 19 16  1  0  0  0  0
 20 14  1  0  0  0  0
 20 22  1  0  0  0  0
 21 20  2  0  0  0  0
 22 23  1  0  0  0  0
 23 25  1  6  0  0  0
 23  5  1  0  0  0  0
 23 33  1  0  0  0  0
 24 34  1  0  0  0  0
 26 28  1  0  0  0  0
 26 29  1  0  0  0  0
 26 27  1  0  0  0  0
 29 30  1  0  0  0  0
 31 29  1  0  0  0  0
 32 34  1  0  0  0  0
 32 29  1  0  0  0  0
 32 35  1  1  0  0  0
 33 32  1  0  0  0  0
 35 38  1  0  0  0  0
 36 35  1  0  0  0  0
 37 35  1  0  0  0  0
 39 40  1  0  0  0  0
 39  3  1  0  0  0  0
 41 39  1  0  0  0  0
 42 39  1  0  0  0  0
M  END
$$$$
