
 OpenBabel10151511583D

 42 45  0  0  1  0  0  0  0  0999 V2000
   -2.7373   -2.3915    1.1378 C   0  0  0  0  0  0  0  0  0  0  0  0
   -4.1272   -2.2237    1.8034 C   0  0  0  0  0  0  0  0  0  0  0  0
   -4.1217   -1.1812    2.9639 C   0  0  2  0  0  0  0  0  0  0  0  0
   -3.5519    0.1918    2.4438 C   0  0  2  0  0  0  0  0  0  0  0  0
   -2.1501    0.0542    1.7366 C   0  0  1  0  0  0  0  0  0  0  0  0
   -2.1565   -1.0399    0.6103 C   0  0  2  0  0  0  0  0  0  0  0  0
   -2.8493   -3.0957    0.3119 H   0  0  0  0  0  0  0  0  0  0  0  0
   -2.0466   -2.8393    1.8547 H   0  0  0  0  0  0  0  0  0  0  0  0
   -4.8398   -1.9009    1.0372 H   0  0  0  0  0  0  0  0  0  0  0  0
   -4.4750   -3.1947    2.1660 H   0  0  0  0  0  0  0  0  0  0  0  0
   -5.1741   -1.0174    3.2246 H   0  0  0  0  0  0  0  0  0  0  0  0
   -4.2502    0.4768    1.6471 H   0  0  0  0  0  0  0  0  0  0  0  0
   -2.8388   -0.6877   -0.1713 H   0  0  0  0  0  0  0  0  0  0  0  0
   -0.7313   -1.2080   -0.0405 C   0  0  2  0  0  0  0  0  0  0  0  0
   -0.1335   -1.8509    0.6120 H   0  0  0  0  0  0  0  0  0  0  0  0
   -0.7903   -1.8803   -1.4434 C   0  0  0  0  0  0  0  0  0  0  0  0
   -1.2788   -2.8529   -1.3939 H   0  0  0  0  0  0  0  0  0  0  0  0
   -1.3381   -1.2513   -2.1488 H   0  0  0  0  0  0  0  0  0  0  0  0
    0.2169   -2.0447   -1.8332 H   0  0  0  0  0  0  0  0  0  0  0  0
    0.0086    0.0813   -0.1354 C   0  0  0  0  0  0  0  0  0  0  0  0
    1.1635    0.1203   -0.6176 O   0  0  0  0  0  0  0  0  0  0  0  0
   -0.5122    1.2621    0.3026 O   0  0  0  0  0  0  0  0  0  0  0  0
   -1.6945    1.4143    1.1000 C   0  0  2  0  0  0  0  0  0  0  0  0
   -1.1694   -0.3191    2.7411 O   0  0  0  0  0  0  0  0  0  0  0  0
   -2.4709    1.8118    0.4443 H   0  0  0  0  0  0  0  0  0  0  0  0
   -3.6537    1.3755    3.4747 C   0  0  0  0  0  0  0  0  0  0  0  0
   -4.4701    1.1898    4.1770 H   0  0  0  0  0  0  0  0  0  0  0  0
   -3.9421    2.2777    2.9238 H   0  0  0  0  0  0  0  0  0  0  0  0
   -2.3769    1.7495    4.2860 C   0  0  0  0  0  0  0  0  0  0  0  0
   -2.1917    0.9922    5.0511 H   0  0  0  0  0  0  0  0  0  0  0  0
   -2.5937    2.6806    4.8169 H   0  0  0  0  0  0  0  0  0  0  0  0
   -1.0867    1.9227    3.4152 C   0  0  1  0  0  0  0  0  0  0  0  0
   -1.4100    2.4237    2.0943 O   0  0  0  0  0  0  0  0  0  0  0  0
   -0.4175    0.6482    3.2864 O   0  0  0  0  0  0  0  0  0  0  0  0
   -0.0926    2.9326    4.0430 C   0  0  0  0  0  0  0  0  0  0  0  0
    0.8272    2.9703    3.4575 H   0  0  0  0  0  0  0  0  0  0  0  0
   -0.5278    3.9344    4.0543 H   0  0  0  0  0  0  0  0  0  0  0  0
    0.1576    2.6500    5.0675 H   0  0  0  0  0  0  0  0  0  0  0  0
   -3.4685   -1.7518    4.2577 C   0  0  0  0  0  0  0  0  0  0  0  0
   -3.5297   -1.0296    5.0697 H   0  0  0  0  0  0  0  0  0  0  0  0
   -2.4232   -2.0188    4.1083 H   0  0  0  0  0  0  0  0  0  0  0  0
   -4.0021   -2.6478    4.5821 H   0  0  0  0  0  0  0  0  0  0  0  0
  1  2  1  0  0  0  0
  1  8  1  0  0  0  0
  2 10  1  0  0  0  0
  2  3  1  0  0  0  0
  3 11  1  1  0  0  0
  3 39  1  0  0  0  0
  4 12  1  6  0  0  0
  4  3  1  0  0  0  0
  4 26  1  0  0  0  0
  5  4  1  0  0  0  0
  5 24  1  1  0  0  0
  6 13  1  6  0  0  0
  6  1  1  0  0  0  0
  6  5  1  0  0  0  0
  7  1  1  0  0  0  0
  9  2  1  0  0  0  0
 14  6  1  0  0  0  0
 14 15  1  1  0  0  0
 16 17  1  0  0  0  0
 16 14  1  0  0  0  0
 18 16  1  0  0  0  0
 19 16  1  0  0  0  0
 20 14  1  0  0  0  0
 20 22  1  0  0  0  0
 21 20  2  0  0  0  0
 22 23  1  0  0  0  0
 23 25  1  6  0  0  0
 23  5  1  0  0  0  0
 23 33  1  0  0  0  0
 24 34  1  0  0  0  0
 26 27  1  0  0  0  0
 26 29  1  0  0  0  0
 28 26  1  0  0  0  0
 29 31  1  0  0  0  0
 29 30  1  0  0  0  0
 32 35  1  1  0  0  0
 32 29  1  0  0  0  0
 33 32  1  0  0  0  0
 34 32  1  0  0  0  0
 35 37  1  0  0  0  0
 35 38  1  0  0  0  0
 36 35  1  0  0  0  0
 39 42  1  0  0  0  0
 39 40  1  0  0  0  0
 41 39  1  0  0  0  0
M  END
$$$$
