
 OpenBabel10151511593D

 42 45  0  0  1  0  0  0  0  0999 V2000
   -2.9510   -1.9109   -0.6567 C   0  0  0  0  0  0  0  0  0  0  0  0
   -4.2785   -1.3958   -1.3096 C   0  0  0  0  0  0  0  0  0  0  0  0
   -4.5605    0.1495   -1.1752 C   0  0  2  0  0  0  0  0  0  0  0  0
   -4.1558    0.6441    0.2700 C   0  0  1  0  0  0  0  0  0  0  0  0
   -2.6762    0.2138    0.7558 C   0  0  1  0  0  0  0  0  0  0  0  0
   -2.0101   -0.7258   -0.3250 C   0  0  2  0  0  0  0  0  0  0  0  0
   -3.1722   -2.4578    0.2644 H   0  0  0  0  0  0  0  0  0  0  0  0
   -2.4518   -2.6062   -1.3368 H   0  0  0  0  0  0  0  0  0  0  0  0
   -5.1037   -1.9602   -0.8661 H   0  0  0  0  0  0  0  0  0  0  0  0
   -4.2590   -1.6424   -2.3752 H   0  0  0  0  0  0  0  0  0  0  0  0
   -3.9389    0.6835   -1.9006 H   0  0  0  0  0  0  0  0  0  0  0  0
   -4.8820    0.0865    0.8774 H   0  0  0  0  0  0  0  0  0  0  0  0
   -1.9891   -0.1485   -1.2586 H   0  0  0  0  0  0  0  0  0  0  0  0
   -0.4769   -1.0104   -0.1591 C   0  0  1  0  0  0  0  0  0  0  0  0
   -0.1383   -1.5435   -1.0553 H   0  0  0  0  0  0  0  0  0  0  0  0
   -0.0958   -1.8949    1.0587 C   0  0  0  0  0  0  0  0  0  0  0  0
   -0.4298   -1.4625    2.0013 H   0  0  0  0  0  0  0  0  0  0  0  0
   -0.5505   -2.8821    0.9582 H   0  0  0  0  0  0  0  0  0  0  0  0
    0.9887   -2.0229    1.1027 H   0  0  0  0  0  0  0  0  0  0  0  0
    0.1999    0.3287   -0.1593 C   0  0  0  0  0  0  0  0  0  0  0  0
    1.3390    0.4681   -0.6609 O   0  0  0  0  0  0  0  0  0  0  0  0
   -0.4884    1.4430    0.2860 O   0  0  0  0  0  0  0  0  0  0  0  0
   -1.5524    1.2368    1.2317 C   0  0  1  0  0  0  0  0  0  0  0  0
   -2.9467   -0.3829    2.0527 O   0  0  0  0  0  0  0  0  0  0  0  0
   -0.9597    0.7837    2.0423 H   0  0  0  0  0  0  0  0  0  0  0  0
   -4.5038    2.1321    0.5878 C   0  0  0  0  0  0  0  0  0  0  0  0
   -5.5087    2.3840    0.2474 H   0  0  0  0  0  0  0  0  0  0  0  0
   -3.8139    2.7950    0.0586 H   0  0  0  0  0  0  0  0  0  0  0  0
   -4.4824    2.4323    2.1129 C   0  0  0  0  0  0  0  0  0  0  0  0
   -5.3407    1.9507    2.5909 H   0  0  0  0  0  0  0  0  0  0  0  0
   -4.6029    3.5115    2.2357 H   0  0  0  0  0  0  0  0  0  0  0  0
   -3.1784    1.9463    2.8085 C   0  0  1  0  0  0  0  0  0  0  0  0
   -2.0833    2.3616    1.9392 O   0  0  0  0  0  0  0  0  0  0  0  0
   -3.2832    0.4939    3.0413 O   0  0  0  0  0  0  0  0  0  0  0  0
   -2.9981    2.6172    4.1915 C   0  0  0  0  0  0  0  0  0  0  0  0
   -2.0772    2.2700    4.6658 H   0  0  0  0  0  0  0  0  0  0  0  0
   -2.9430    3.7031    4.0870 H   0  0  0  0  0  0  0  0  0  0  0  0
   -3.8390    2.3663    4.8424 H   0  0  0  0  0  0  0  0  0  0  0  0
   -6.0277    0.4485   -1.6108 C   0  0  0  0  0  0  0  0  0  0  0  0
   -6.1857    1.5204   -1.7309 H   0  0  0  0  0  0  0  0  0  0  0  0
   -6.7390    0.0639   -0.8784 H   0  0  0  0  0  0  0  0  0  0  0  0
   -6.2411   -0.0146   -2.5761 H   0  0  0  0  0  0  0  0  0  0  0  0
  1  6  1  0  0  0  0
  1  7  1  0  0  0  0
  2  3  1  0  0  0  0
  2  9  1  0  0  0  0
  2  1  1  0  0  0  0
  3 11  1  6  0  0  0
  3  4  1  0  0  0  0
  4 26  1  0  0  0  0
  4  5  1  0  0  0  0
  4 12  1  1  0  0  0
  5 23  1  0  0  0  0
  5 24  1  1  0  0  0
  6 13  1  6  0  0  0
  6 14  1  0  0  0  0
  6  5  1  0  0  0  0
  8  1  1  0  0  0  0
 10  2  1  0  0  0  0
 14 15  1  6  0  0  0
 14 16  1  0  0  0  0
 16 19  1  0  0  0  0
 16 17  1  0  0  0  0
 18 16  1  0  0  0  0
 20 14  1  0  0  0  0
 20 22  1  0  0  0  0
 21 20  2  0  0  0  0
 22 23  1  0  0  0  0
 23 33  1  0  0  0  0
 23 25  1  1  0  0  0
 24 34  1  0  0  0  0
 26 29  1  0  0  0  0
 27 26  1  0  0  0  0
 28 26  1  0  0  0  0
 29 31  1  0  0  0  0
 29 30  1  0  0  0  0
 29 32  1  0  0  0  0
 32 34  1  0  0  0  0
 32 35  1  1  0  0  0
 33 32  1  0  0  0  0
 35 36  1  0  0  0  0
 35 38  1  0  0  0  0
 37 35  1  0  0  0  0
 39  3  1  0  0  0  0
 39 41  1  0  0  0  0
 40 39  1  0  0  0  0
 42 39  1  0  0  0  0
M  END
$$$$
