
 OpenBabel10151512003D

 42 45  0  0  1  0  0  0  0  0999 V2000
   -2.3614   -2.5373   -1.5408 C   0  0  0  0  0  0  0  0  0  0  0  0
   -2.4175   -2.9173   -3.0396 C   0  0  0  0  0  0  0  0  0  0  0  0
   -2.7321   -1.7187   -3.9928 C   0  0  1  0  0  0  0  0  0  0  0  0
   -1.9906   -0.3397   -3.6650 C   0  0  2  0  0  0  0  0  0  0  0  0
   -2.0274   -0.0633   -2.0927 C   0  0  1  0  0  0  0  0  0  0  0  0
   -1.3908   -1.3389   -1.3771 C   0  0  2  0  0  0  0  0  0  0  0  0
   -2.0135   -3.4172   -0.9990 H   0  0  0  0  0  0  0  0  0  0  0  0
   -3.3558   -2.2852   -1.1626 H   0  0  0  0  0  0  0  0  0  0  0  0
   -1.4563   -3.3621   -3.3192 H   0  0  0  0  0  0  0  0  0  0  0  0
   -3.1805   -3.6923   -3.1611 H   0  0  0  0  0  0  0  0  0  0  0  0
   -3.8073   -1.5472   -3.8649 H   0  0  0  0  0  0  0  0  0  0  0  0
   -0.9358   -0.4429   -3.9428 H   0  0  0  0  0  0  0  0  0  0  0  0
   -0.4982   -1.6215   -1.9539 H   0  0  0  0  0  0  0  0  0  0  0  0
   -0.7647   -1.0902    0.0480 C   0  0  2  0  0  0  0  0  0  0  0  0
   -1.5498   -0.7063    0.7047 H   0  0  0  0  0  0  0  0  0  0  0  0
   -0.1519   -2.3450    0.7374 C   0  0  0  0  0  0  0  0  0  0  0  0
   -0.9185   -3.0844    0.9686 H   0  0  0  0  0  0  0  0  0  0  0  0
    0.6021   -2.8051    0.0943 H   0  0  0  0  0  0  0  0  0  0  0  0
    0.3164   -2.0649    1.6837 H   0  0  0  0  0  0  0  0  0  0  0  0
    0.2596   -0.0083   -0.1508 C   0  0  0  0  0  0  0  0  0  0  0  0
    1.3983   -0.0239    0.3710 O   0  0  0  0  0  0  0  0  0  0  0  0
   -0.0186    1.0182   -1.0119 O   0  0  0  0  0  0  0  0  0  0  0  0
   -1.3713    1.2093   -1.4279 C   0  0  1  0  0  0  0  0  0  0  0  0
   -3.4251    0.2268   -1.8209 O   0  0  0  0  0  0  0  0  0  0  0  0
   -1.8813    1.4020   -0.4711 H   0  0  0  0  0  0  0  0  0  0  0  0
   -2.6069    0.7566   -4.6274 C   0  0  0  0  0  0  0  0  0  0  0  0
   -3.6472    0.4992   -4.8490 H   0  0  0  0  0  0  0  0  0  0  0  0
   -2.0739    0.7087   -5.5830 H   0  0  0  0  0  0  0  0  0  0  0  0
   -2.6618    2.2464   -4.2121 C   0  0  0  0  0  0  0  0  0  0  0  0
   -3.4551    2.7279   -4.7921 H   0  0  0  0  0  0  0  0  0  0  0  0
   -1.7269    2.7336   -4.5096 H   0  0  0  0  0  0  0  0  0  0  0  0
   -2.9338    2.4563   -2.6995 C   0  0  1  0  0  0  0  0  0  0  0  0
   -1.6076    2.4176   -2.1286 O   0  0  0  0  0  0  0  0  0  0  0  0
   -3.8810    1.4559   -2.1878 O   0  0  0  0  0  0  0  0  0  0  0  0
   -3.5227    3.8577   -2.3959 C   0  0  0  0  0  0  0  0  0  0  0  0
   -3.6400    3.9910   -1.3180 H   0  0  0  0  0  0  0  0  0  0  0  0
   -2.8613    4.6414   -2.7709 H   0  0  0  0  0  0  0  0  0  0  0  0
   -4.5036    3.9732   -2.8625 H   0  0  0  0  0  0  0  0  0  0  0  0
   -2.5352   -2.2101   -5.4635 C   0  0  0  0  0  0  0  0  0  0  0  0
   -2.9185   -1.4905   -6.1868 H   0  0  0  0  0  0  0  0  0  0  0  0
   -3.0776   -3.1442   -5.6279 H   0  0  0  0  0  0  0  0  0  0  0  0
   -1.4772   -2.3823   -5.6730 H   0  0  0  0  0  0  0  0  0  0  0  0
  1  6  1  0  0  0  0
  1  8  1  0  0  0  0
  1  7  1  0  0  0  0
  2  1  1  0  0  0  0
  3 11  1  1  0  0  0
  3  4  1  0  0  0  0
  3  2  1  0  0  0  0
  4 12  1  6  0  0  0
  4  5  1  0  0  0  0
  5 24  1  1  0  0  0
  5 23  1  0  0  0  0
  5  6  1  0  0  0  0
  6 13  1  6  0  0  0
  6 14  1  0  0  0  0
  9  2  1  0  0  0  0
 10  2  1  0  0  0  0
 14 15  1  1  0  0  0
 14 16  1  0  0  0  0
 16 17  1  0  0  0  0
 16 19  1  0  0  0  0
 18 16  1  0  0  0  0
 20 14  1  0  0  0  0
 20 21  2  0  0  0  0
 22 20  1  0  0  0  0
 23 22  1  0  0  0  0
 23 25  1  1  0  0  0
 26 29  1  0  0  0  0
 26  4  1  0  0  0  0
 27 26  1  0  0  0  0
 28 26  1  0  0  0  0
 29 32  1  0  0  0  0
 30 29  1  0  0  0  0
 31 29  1  0  0  0  0
 32 35  1  1  0  0  0
 32 34  1  0  0  0  0
 32 33  1  0  0  0  0
 33 23  1  0  0  0  0
 34 24  1  0  0  0  0
 35 36  1  0  0  0  0
 37 35  1  0  0  0  0
 38 35  1  0  0  0  0
 39  3  1  0  0  0  0
 40 39  1  0  0  0  0
 41 39  1  0  0  0  0
 42 39  1  0  0  0  0
M  END
$$$$
