
 OpenBabel10151511583D

 42 45  0  0  1  0  0  0  0  0999 V2000
   -2.6386   -1.1280   -1.5475 C   0  0  0  0  0  0  0  0  0  0  0  0
   -4.1663   -0.9781   -1.7548 C   0  0  0  0  0  0  0  0  0  0  0  0
   -4.7332    0.2992   -1.0581 C   0  0  2  0  0  0  0  0  0  0  0  0
   -4.3669    0.2519    0.4770 C   0  0  1  0  0  0  0  0  0  0  0  0
   -2.8012    0.0948    0.7231 C   0  0  1  0  0  0  0  0  0  0  0  0
   -2.2464   -1.1734   -0.0315 C   0  0  1  0  0  0  0  0  0  0  0  0
   -2.3260   -2.0556   -2.0349 H   0  0  0  0  0  0  0  0  0  0  0  0
   -2.1263   -0.3023   -2.0541 H   0  0  0  0  0  0  0  0  0  0  0  0
   -4.6664   -1.8688   -1.3587 H   0  0  0  0  0  0  0  0  0  0  0  0
   -4.3659   -0.9424   -2.8300 H   0  0  0  0  0  0  0  0  0  0  0  0
   -4.2567    1.1692   -1.5127 H   0  0  0  0  0  0  0  0  0  0  0  0
   -4.8091   -0.6880    0.8314 H   0  0  0  0  0  0  0  0  0  0  0  0
   -2.7424   -2.0580    0.3824 H   0  0  0  0  0  0  0  0  0  0  0  0
   -0.6968   -1.3859    0.1463 C   0  0  1  0  0  0  0  0  0  0  0  0
   -0.3618   -2.0792   -0.6324 H   0  0  0  0  0  0  0  0  0  0  0  0
   -0.2806   -2.0442    1.4931 C   0  0  0  0  0  0  0  0  0  0  0  0
   -0.5027   -1.4072    2.3503 H   0  0  0  0  0  0  0  0  0  0  0  0
   -0.7958   -2.9972    1.6191 H   0  0  0  0  0  0  0  0  0  0  0  0
    0.7920   -2.2479    1.4988 H   0  0  0  0  0  0  0  0  0  0  0  0
    0.0427   -0.1215   -0.0493 C   0  0  0  0  0  0  0  0  0  0  0  0
    1.2737   -0.1418   -0.2741 O   0  0  0  0  0  0  0  0  0  0  0  0
   -0.5709    1.0875   -0.0096 O   0  0  0  0  0  0  0  0  0  0  0  0
   -1.9332    1.3579    0.3437 C   0  0  2  0  0  0  0  0  0  0  0  0
   -2.5968   -0.0931    2.1460 O   0  0  0  0  0  0  0  0  0  0  0  0
   -2.3601    1.8664   -0.5156 H   0  0  0  0  0  0  0  0  0  0  0  0
   -5.0718    1.3337    1.3784 C   0  0  0  0  0  0  0  0  0  0  0  0
   -5.3516    0.8591    2.3262 H   0  0  0  0  0  0  0  0  0  0  0  0
   -6.0119    1.6694    0.9475 H   0  0  0  0  0  0  0  0  0  0  0  0
   -4.2524    2.5940    1.7420 C   0  0  0  0  0  0  0  0  0  0  0  0
   -4.8600    3.1837    2.4333 H   0  0  0  0  0  0  0  0  0  0  0  0
   -4.1136    3.2014    0.8446 H   0  0  0  0  0  0  0  0  0  0  0  0
   -2.8661    2.2605    2.3885 C   0  0  1  0  0  0  0  0  0  0  0  0
   -1.8183    2.3245    1.4051 O   0  0  0  0  0  0  0  0  0  0  0  0
   -2.8509    0.9352    2.9745 O   0  0  0  0  0  0  0  0  0  0  0  0
   -2.5052    3.2655    3.5084 C   0  0  0  0  0  0  0  0  0  0  0  0
   -1.5126    3.0483    3.9062 H   0  0  0  0  0  0  0  0  0  0  0  0
   -2.5125    4.2891    3.1262 H   0  0  0  0  0  0  0  0  0  0  0  0
   -3.2292    3.1900    4.3218 H   0  0  0  0  0  0  0  0  0  0  0  0
   -6.2532    0.4396   -1.3845 C   0  0  0  0  0  0  0  0  0  0  0  0
   -6.5958    1.4595   -1.1999 H   0  0  0  0  0  0  0  0  0  0  0  0
   -6.8479   -0.2467   -0.7781 H   0  0  0  0  0  0  0  0  0  0  0  0
   -6.4509    0.2329   -2.4392 H   0  0  0  0  0  0  0  0  0  0  0  0
  1  6  1  0  0  0  0
  2  1  1  0  0  0  0
  2  9  1  0  0  0  0
  2  3  1  0  0  0  0
  3 11  1  6  0  0  0
  3  4  1  0  0  0  0
  4  5  1  0  0  0  0
  4 12  1  1  0  0  0
  4 26  1  0  0  0  0
  5 24  1  1  0  0  0
  6 14  1  0  0  0  0
  6 13  1  1  0  0  0
  6  5  1  0  0  0  0
  7  1  1  0  0  0  0
  8  1  1  0  0  0  0
 10  2  1  0  0  0  0
 14 15  1  6  0  0  0
 14 16  1  0  0  0  0
 16 19  1  0  0  0  0
 16 18  1  0  0  0  0
 16 17  1  0  0  0  0
 20 22  1  0  0  0  0
 20 14  1  0  0  0  0
 21 20  2  0  0  0  0
 22 23  1  0  0  0  0
 23 25  1  6  0  0  0
 23  5  1  0  0  0  0
 23 33  1  0  0  0  0
 24 34  1  0  0  0  0
 26 29  1  0  0  0  0
 26 27  1  0  0  0  0
 28 26  1  0  0  0  0
 29 32  1  0  0  0  0
 29 30  1  0  0  0  0
 31 29  1  0  0  0  0
 32 34  1  0  0  0  0
 32 35  1  1  0  0  0
 33 32  1  0  0  0  0
 35 36  1  0  0  0  0
 35 38  1  0  0  0  0
 37 35  1  0  0  0  0
 39 40  1  0  0  0  0
 39  3  1  0  0  0  0
 39 41  1  0  0  0  0
 42 39  1  0  0  0  0
M  END
$$$$
