
     RDKit          3D

 31 31  0  0  1  0  0  0  0  0999 V2000
    1.9079   -0.7183   -1.2268 C   0  0  1  0  0  0  0  0  0  0  0  0
    3.2124    0.0454   -2.5937 C   0  0  0  0  0  0  0  0  0  0  0  0
    1.7537    0.0311   -2.5949 C   0  0  1  0  0  0  0  0  0  0  0  0
    1.5777   -1.7646   -1.2537 H   0  0  0  0  0  0  0  0  0  0  0  0
    1.3417    1.0434   -2.5214 H   0  0  0  0  0  0  0  0  0  0  0  0
    3.3253   -0.6320   -1.4486 N   0  0  0  0  0  0  0  0  0  0  0  0
    4.4788   -1.2610   -0.8674 C   0  0  0  0  0  0  0  0  0  0  0  0
    4.4622   -1.4318    0.6841 C   0  0  0  0  0  0  0  0  0  0  0  0
    5.5212   -2.4659    1.1619 C   0  0  0  0  0  0  0  0  0  0  0  0
    4.6704   -0.0706    1.4069 C   0  0  0  0  0  0  0  0  0  0  0  0
    4.0493    0.4668   -3.4223 O   0  0  0  0  0  0  0  0  0  0  0  0
    1.1246   -0.7888   -3.7455 C   0  0  0  0  0  0  0  0  0  0  0  0
    1.3146    0.0556   -0.0123 C   0  0  0  0  0  0  0  0  0  0  0  0
   -0.2317    0.0442    0.0177 C   0  0  0  0  0  0  0  0  0  0  0  0
    1.1719   -0.2222   -4.6767 H   0  0  0  0  0  0  0  0  0  0  0  0
    1.6454   -1.7388   -3.8868 H   0  0  0  0  0  0  0  0  0  0  0  0
    0.0789   -0.9950   -3.5158 H   0  0  0  0  0  0  0  0  0  0  0  0
   -0.5832    0.5549    0.9167 H   0  0  0  0  0  0  0  0  0  0  0  0
   -0.6069   -0.9817    0.0318 H   0  0  0  0  0  0  0  0  0  0  0  0
   -0.6438    0.5594   -0.8525 H   0  0  0  0  0  0  0  0  0  0  0  0
    1.6619   -0.4011    0.9114 H   0  0  0  0  0  0  0  0  0  0  0  0
    1.6561    1.0936   -0.0211 H   0  0  0  0  0  0  0  0  0  0  0  0
    5.3727   -0.6969   -1.1507 H   0  0  0  0  0  0  0  0  0  0  0  0
    4.5571   -2.2429   -1.3399 H   0  0  0  0  0  0  0  0  0  0  0  0
    3.4899   -1.8385    0.9734 H   0  0  0  0  0  0  0  0  0  0  0  0
    5.6867    0.2935    1.2456 H   0  0  0  0  0  0  0  0  0  0  0  0
    4.5026   -0.1769    2.4805 H   0  0  0  0  0  0  0  0  0  0  0  0
    3.9809    0.6845    1.0310 H   0  0  0  0  0  0  0  0  0  0  0  0
    5.3630   -3.4322    0.6782 H   0  0  0  0  0  0  0  0  0  0  0  0
    5.4451   -2.6168    2.2408 H   0  0  0  0  0  0  0  0  0  0  0  0
    6.5312   -2.1240    0.9288 H   0  0  0  0  0  0  0  0  0  0  0  0
  1  3  1  0
  1 13  1  0
  2  6  1  0
  3  2  1  0
  3  5  1  1
  1  4  1  6
  6  1  1  0
  6  7  1  0
  7  8  1  0
  8 25  1  0
  8  9  1  0
  8 10  1  0
  9 30  1  0
 10 27  1  0
 11  2  2  0
 12 17  1  0
 12  3  1  0
 13 14  1  0
 13 21  1  0
 14 19  1  0
 14 18  1  0
 15 12  1  0
 16 12  1  0
 20 14  1  0
 22 13  1  0
 23  7  1  0
 24  7  1  0
 26 10  1  0
 28 10  1  0
 29  9  1  0
 31  9  1  0
M  END
$$$$
