S12b_
     RDKit          3D

 42 44  0  0  1  0  0  0  0  0999 V2000
   -3.6688   -1.3655   -0.1431 C   0  0  1  0  0  0  0  0  0  0  0  0
   -2.4787   -2.0895    0.5271 C   0  0  2  0  0  0  0  0  0  0  0  0
   -3.2717   -0.0464   -0.8034 C   0  0  0  0  0  0  0  0  0  0  0  0
   -1.5237   -1.0814    1.2064 C   0  0  2  0  0  0  0  0  0  0  0  0
   -2.2499    0.7032    0.0710 C   0  0  1  0  0  0  0  0  0  0  0  0
   -2.2749    0.1331    1.4014 O   0  0  0  0  0  0  0  0  0  0  0  0
   -0.9590    0.4082   -0.4940 O   0  0  0  0  0  0  0  0  0  0  0  0
   -0.3476   -0.5173    0.4230 C   0  0  2  0  0  0  0  0  0  0  0  0
    0.2513    0.1095    1.0965 H   0  0  0  0  0  0  0  0  0  0  0  0
    0.5561   -1.4991   -0.3164 C   0  0  0  0  0  0  0  0  0  0  0  0
    1.8358   -0.8937   -0.6011 O   0  0  0  0  0  0  0  0  0  0  0  0
    2.7143   -0.8912    0.4322 C   0  0  0  0  0  0  0  0  0  0  0  0
    3.9945   -0.2456    0.0370 C   0  0  0  0  0  0  0  0  0  0  0  0
    5.0501   -0.2491    0.9592 C   0  0  0  0  0  0  0  0  0  0  0  0
    6.2706    0.3464    0.6344 C   0  0  0  0  0  0  0  0  0  0  0  0
    6.4422    0.9494   -0.6109 C   0  0  0  0  0  0  0  0  0  0  0  0
    5.3959    0.9597   -1.5328 C   0  0  0  0  0  0  0  0  0  0  0  0
    4.1733    0.3646   -1.2121 C   0  0  0  0  0  0  0  0  0  0  0  0
   -4.4180   -1.1433    0.6276 H   0  0  0  0  0  0  0  0  0  0  0  0
   -4.2972   -2.2212   -1.0988 O   0  0  0  0  0  0  0  0  0  0  0  0
   -2.9034   -2.7513    1.2932 H   0  0  0  0  0  0  0  0  0  0  0  0
   -1.8370   -2.9345   -0.4287 O   0  0  0  0  0  0  0  0  0  0  0  0
   -4.1834    0.5435   -0.9612 H   0  0  0  0  0  0  0  0  0  0  0  0
   -2.8705   -0.2269   -1.8094 H   0  0  0  0  0  0  0  0  0  0  0  0
   -1.1941   -1.4750    2.1736 H   0  0  0  0  0  0  0  0  0  0  0  0
    0.7089   -2.4249    0.2500 H   0  0  0  0  0  0  0  0  0  0  0  0
    0.1381   -1.7563   -1.2944 H   0  0  0  0  0  0  0  0  0  0  0  0
    2.4986   -1.3535    1.5424 O   0  0  0  0  0  0  0  0  0  0  0  0
    4.9257   -0.7152    1.9348 H   0  0  0  0  0  0  0  0  0  0  0  0
    7.0860    0.3411    1.3536 H   0  0  0  0  0  0  0  0  0  0  0  0
    7.3923    1.4147   -0.8628 H   0  0  0  0  0  0  0  0  0  0  0  0
    5.5301    1.4342   -2.5020 H   0  0  0  0  0  0  0  0  0  0  0  0
    3.3688    0.3896   -1.9434 H   0  0  0  0  0  0  0  0  0  0  0  0
   -3.5642   -2.6950   -1.5420 H   0  0  0  0  0  0  0  0  0  0  0  0
   -1.6133   -3.7691    0.0246 H   0  0  0  0  0  0  0  0  0  0  0  0
   -2.5600    2.2258    0.0894 C   0  0  0  0  0  0  0  0  0  0  0  0
   -1.8953    3.0950   -0.4633 O   0  0  0  0  0  0  0  0  0  0  0  0
   -3.6996    2.4694    0.8090 O   0  0  0  0  0  0  0  0  0  0  0  0
   -4.0502    3.8505    0.8914 C   0  0  0  0  0  0  0  0  0  0  0  0
   -4.2566    4.2533   -0.1051 H   0  0  0  0  0  0  0  0  0  0  0  0
   -4.9595    3.9338    1.4931 H   0  0  0  0  0  0  0  0  0  0  0  0
   -3.2561    4.4199    1.3844 H   0  0  0  0  0  0  0  0  0  0  0  0
  1  2  1  0
  1 19  1  1
  1  3  1  0
  1 20  1  0
  2 21  1  1
  2  4  1  0
  2 22  1  0
  3  5  1  0
  3 23  1  0
  3 24  1  0
  4  8  1  0
  4  6  1  0
  4 25  1  1
  5 36  1  1
  5  6  1  0
  5  7  1  0
  7  8  1  0
  8 10  1  0
  8  9  1  1
 10 26  1  0
 10 11  1  0
 10 27  1  0
 11 12  1  0
 12 28  2  0
 12 13  1  0
 13 14  2  0
 13 18  1  0
 14 15  1  0
 14 29  1  0
 15 30  1  0
 15 16  2  0
 16 31  1  0
 16 17  1  0
 17 18  2  0
 17 32  1  0
 18 33  1  0
 20 34  1  0
 22 35  1  0
 36 37  2  0
 36 38  1  0
 38 39  1  0
 39 40  1  0
 39 42  1  0
 39 41  1  0
M  END
$$$$
