S3
     RDKit          3D

 31 32  0  0  1  0  0  0  0  0999 V2000
   -0.7937    0.4761    0.4885 C   0  0  0  0  0  0  0  0  0  0  0  0
    0.2935   -0.2721    0.0135 C   0  0  0  0  0  0  0  0  0  0  0  0
    0.0328   -1.3679   -0.7984 C   0  0  0  0  0  0  0  0  0  0  0  0
   -1.2632   -1.7212   -1.1669 C   0  0  0  0  0  0  0  0  0  0  0  0
   -2.3462   -0.9638   -0.7046 C   0  0  0  0  0  0  0  0  0  0  0  0
   -2.1086    0.1396    0.1366 C   0  0  0  0  0  0  0  0  0  0  0  0
    1.6899    0.0349    0.3356 C   0  0  0  0  0  0  0  0  0  0  0  0
    2.6798   -0.7849   -0.0553 C   0  0  0  0  0  0  0  0  0  0  0  0
    2.3937   -1.9615   -0.9124 C   0  0  0  0  0  0  0  0  0  0  0  0
    1.0734   -2.1812   -1.2760 O   0  0  0  0  0  0  0  0  0  0  0  0
    3.2896   -2.7043   -1.3011 O   0  0  0  0  0  0  0  0  0  0  0  0
    1.9144    1.1402    1.1358 O   0  0  0  0  0  0  0  0  0  0  0  0
    4.1220   -0.6044    0.3144 C   0  0  0  0  0  0  0  0  0  0  0  0
   -3.7465   -1.3463   -1.0980 C   0  0  0  0  0  0  0  0  0  0  0  0
    2.1792    2.3007    0.3432 C   0  0  0  0  0  0  0  0  0  0  0  0
   -3.2263    0.8164    0.5516 O   0  0  0  0  0  0  0  0  0  0  0  0
   -3.0424    1.8931    1.4618 C   0  0  0  0  0  0  0  0  0  0  0  0
   -0.5947    1.3202    1.1403 H   0  0  0  0  0  0  0  0  0  0  0  0
   -1.4219   -2.5859   -1.8063 H   0  0  0  0  0  0  0  0  0  0  0  0
    4.2803    0.2321    1.0019 H   0  0  0  0  0  0  0  0  0  0  0  0
    4.5057   -1.5028    0.8100 H   0  0  0  0  0  0  0  0  0  0  0  0
    4.7246   -0.4161   -0.5804 H   0  0  0  0  0  0  0  0  0  0  0  0
   -4.3273   -1.6198   -0.2113 H   0  0  0  0  0  0  0  0  0  0  0  0
   -4.2373   -0.5142   -1.6131 H   0  0  0  0  0  0  0  0  0  0  0  0
   -3.7523   -2.2046   -1.7782 H   0  0  0  0  0  0  0  0  0  0  0  0
    1.3314    2.5387   -0.3079 H   0  0  0  0  0  0  0  0  0  0  0  0
    2.3338    3.1429    1.0238 H   0  0  0  0  0  0  0  0  0  0  0  0
    3.0884    2.1725   -0.2535 H   0  0  0  0  0  0  0  0  0  0  0  0
   -2.4630    2.7012    1.0035 H   0  0  0  0  0  0  0  0  0  0  0  0
   -2.5789    1.5500    2.3926 H   0  0  0  0  0  0  0  0  0  0  0  0
   -4.0304    2.2926    1.7102 H   0  0  0  0  0  0  0  0  0  0  0  0
  1  2  2  0
  1  6  1  0
  1 18  1  0
  2  3  1  0
  2  7  1  0
  3  4  2  0
  3 10  1  0
  4  5  1  0
  4 19  1  0
  5  6  2  0
  5 14  1  0
  6 16  1  0
  7  8  2  0
  7 12  1  0
  8  9  1  0
  8 13  1  0
  9 10  1  0
  9 11  2  0
 12 15  1  0
 13 20  1  0
 13 21  1  0
 13 22  1  0
 14 23  1  0
 14 24  1  0
 14 25  1  0
 15 26  1  0
 15 27  1  0
 15 28  1  0
 16 17  1  0
 17 29  1  0
 17 30  1  0
 17 31  1  0
M  END
$$$$
