
 OpenBabel11301903593D

 23 24  0  0  1  0  0  0  0  0999 V2000
    4.2822   -0.1943    0.0134 C   0  0  0  0  0  0  0  0  0  0  0  0
    3.5764   -0.6928   -1.1570 C   0  0  2  0  0  0  0  0  0  0  0  0
    3.9576   -2.1905   -1.1614 C   0  0  2  0  0  0  0  0  0  0  0  0
    4.6447   -2.4021    0.0672 O   0  0  0  0  0  0  0  0  0  0  0  0
    4.8296   -1.2362    0.7129 C   0  0  0  0  0  0  0  0  0  0  0  0
    2.6790   -2.8855   -1.2060 C   0  0  0  0  0  0  0  0  0  0  0  0
    1.6325   -2.0439   -1.2416 O   0  0  0  0  0  0  0  0  0  0  0  0
    2.0076   -0.6680   -1.1758 C   0  0  1  0  0  0  0  0  0  0  0  0
    2.5596   -4.1307   -1.2082 O   0  0  0  0  0  0  0  0  0  0  0  0
    4.5842   -2.4590   -2.0171 H   0  0  0  0  0  0  0  0  0  0  0  0
    3.9754   -0.2106   -2.0562 H   0  0  0  0  0  0  0  0  0  0  0  0
    4.3999    1.1039    0.3294 C   0  0  0  0  0  0  0  0  0  0  0  0
    5.4294   -1.1603    1.8090 O   0  0  0  0  0  0  0  0  0  0  0  0
    1.2907    0.0140    0.0268 C   0  0  0  0  0  0  0  0  0  0  0  0
   -0.2515   -0.0595   -0.0312 C   0  0  0  0  0  0  0  0  0  0  0  0
    1.6694   -0.1895   -2.1011 H   0  0  0  0  0  0  0  0  0  0  0  0
    4.9069    1.3936    1.1311 H   0  0  0  0  0  0  0  0  0  0  0  0
    3.9843    1.8012   -0.2422 H   0  0  0  0  0  0  0  0  0  0  0  0
    1.5688    1.0695    0.0521 H   0  0  0  0  0  0  0  0  0  0  0  0
    1.6211   -0.4482    0.9614 H   0  0  0  0  0  0  0  0  0  0  0  0
   -0.6714    0.4444    0.8417 H   0  0  0  0  0  0  0  0  0  0  0  0
   -0.5884   -1.0972   -0.0238 H   0  0  0  0  0  0  0  0  0  0  0  0
   -0.6249    0.4309   -0.9326 H   0  0  0  0  0  0  0  0  0  0  0  0
  1 12  2  0  0  0  0
  1  5  1  0  0  0  0
  2  8  1  1  0  0  0
  2  1  1  0  0  0  0
  3  2  1  6  0  0  0
  3  4  1  0  0  0  0
  4  5  1  0  0  0  0
  5 13  2  0  0  0  0
  6  3  1  0  0  0  0
  7  6  1  0  0  0  0
  7  8  1  0  0  0  0
  8 16  1  6  0  0  0
  8 14  1  0  0  0  0
  9  6  2  0  0  0  0
 10  3  1  0  0  0  0
 11  2  1  0  0  0  0
 12 17  1  0  0  0  0
 14 19  1  0  0  0  0
 14 20  1  0  0  0  0
 15 22  1  0  0  0  0
 15 14  1  0  0  0  0
 15 21  1  0  0  0  0
 18 12  1  0  0  0  0
 23 15  1  0  0  0  0
M  END
$$$$
