
 OpenBabel11301903593D

 23 24  0  0  1  0  0  0  0  0999 V2000
    2.5884   -3.1691   -1.5268 C   0  0  0  0  0  0  0  0  0  0  0  0
    1.4241   -2.3270   -1.3152 C   0  0  1  0  0  0  0  0  0  0  0  0
    0.6568   -2.4533   -2.6499 C   0  0  1  0  0  0  0  0  0  0  0  0
    1.4578   -3.3135   -3.4546 O   0  0  0  0  0  0  0  0  0  0  0  0
    2.5508   -3.7209   -2.7805 C   0  0  0  0  0  0  0  0  0  0  0  0
    0.6137   -1.0857   -3.1585 C   0  0  0  0  0  0  0  0  0  0  0  0
    1.2010   -0.2009   -2.3303 O   0  0  0  0  0  0  0  0  0  0  0  0
    1.7317   -0.8027   -1.1486 C   0  0  1  0  0  0  0  0  0  0  0  0
    0.0956   -0.7602   -4.2491 O   0  0  0  0  0  0  0  0  0  0  0  0
   -0.3500   -2.8585   -2.5174 H   0  0  0  0  0  0  0  0  0  0  0  0
    0.8166   -2.7232   -0.4952 H   0  0  0  0  0  0  0  0  0  0  0  0
    3.5508   -3.3614   -0.6123 C   0  0  0  0  0  0  0  0  0  0  0  0
    3.4007   -4.4937   -3.2805 O   0  0  0  0  0  0  0  0  0  0  0  0
    1.0924   -0.1622    0.1159 C   0  0  0  0  0  0  0  0  0  0  0  0
    1.4276    1.3390    0.2747 C   0  0  0  0  0  0  0  0  0  0  0  0
    2.8106   -0.6140   -1.1265 H   0  0  0  0  0  0  0  0  0  0  0  0
    4.3342   -3.9391   -0.8017 H   0  0  0  0  0  0  0  0  0  0  0  0
    3.4957   -2.9194    0.2733 H   0  0  0  0  0  0  0  0  0  0  0  0
    1.4536   -0.6891    1.0036 H   0  0  0  0  0  0  0  0  0  0  0  0
    0.0054   -0.2744    0.0749 H   0  0  0  0  0  0  0  0  0  0  0  0
    0.9564    1.7296    1.1797 H   0  0  0  0  0  0  0  0  0  0  0  0
    1.0590    1.9090   -0.5806 H   0  0  0  0  0  0  0  0  0  0  0  0
    2.5079    1.4821    0.3572 H   0  0  0  0  0  0  0  0  0  0  0  0
  1  2  1  0  0  0  0
  1 12  2  0  0  0  0
  2  3  1  6  0  0  0
  2 11  1  0  0  0  0
  3 10  1  1  0  0  0
  4  5  1  0  0  0  0
  4  3  1  0  0  0  0
  5  1  1  0  0  0  0
  6  3  1  0  0  0  0
  6  7  1  0  0  0  0
  7  8  1  0  0  0  0
  8  2  1  6  0  0  0
  8 16  1  0  0  0  0
  8 14  1  0  0  0  0
  9  6  2  0  0  0  0
 12 18  1  0  0  0  0
 13  5  2  0  0  0  0
 14 15  1  0  0  0  0
 14 19  1  0  0  0  0
 15 23  1  0  0  0  0
 15 21  1  0  0  0  0
 17 12  1  0  0  0  0
 20 14  1  0  0  0  0
 22 15  1  0  0  0  0
M  END
$$$$
