S17b
     RDKit          3D

 63 66  0  0  1  0  0  0  0  0999 V2000
    3.4978    1.8819   -1.2264 C   0  0  0  0  0  0  0  0  0  0  0  0
    4.1945    1.1446   -0.2470 C   0  0  0  0  0  0  0  0  0  0  0  0
    3.6684   -0.0334    0.2834 C   0  0  0  0  0  0  0  0  0  0  0  0
    2.4324   -0.4509   -0.1988 C   0  0  0  0  0  0  0  0  0  0  0  0
    1.7287    0.2684   -1.1658 C   0  0  0  0  0  0  0  0  0  0  0  0
    2.2580    1.4400   -1.6780 C   0  0  0  0  0  0  0  0  0  0  0  0
    5.4947    1.6479    0.2152 C   0  0  0  0  0  0  0  0  0  0  0  0
    6.2209    0.8803    1.2556 C   0  0  0  0  0  0  0  0  0  0  0  0
    5.7310   -0.2544    1.7704 C   0  0  0  0  0  0  0  0  0  0  0  0
    4.4197   -0.7957    1.3076 C   0  0  0  0  0  0  0  0  0  0  0  0
    5.9955    2.6781   -0.2265 O   0  0  0  0  0  0  0  0  0  0  0  0
    7.4371    1.4026    1.6643 O   0  0  0  0  0  0  0  0  0  0  0  0
    6.4305   -1.0647    2.8220 C   0  0  0  0  0  0  0  0  0  0  0  0
    3.9985   -1.8474    1.7723 O   0  0  0  0  0  0  0  0  0  0  0  0
    1.5550    2.1530   -2.5971 O   0  0  0  0  0  0  0  0  0  0  0  0
    0.4006   -0.3970   -1.4267 C   0  0  2  0  0  0  0  0  0  0  0  0
    0.7204   -1.7779   -0.7761 C   0  0  2  0  0  0  0  0  0  0  0  0
    1.7573   -1.5702    0.2179 O   0  0  0  0  0  0  0  0  0  0  0  0
    1.2130   -2.8800   -1.7184 C   0  0  0  0  0  0  0  0  0  0  0  0
    0.0442   -0.4827   -2.9156 C   0  0  0  0  0  0  0  0  0  0  0  0
   -0.6890    0.3738   -0.6165 C   0  0  0  0  0  0  0  0  0  0  0  0
   -2.1213   -0.1653   -0.7867 C   0  0  0  0  0  0  0  0  0  0  0  0
   -3.2763    0.5528    0.0086 C   0  0  1  0  0  0  0  0  0  0  0  0
   -4.6409   -0.1300   -0.4259 C   0  0  1  0  0  0  0  0  0  0  0  0
   -4.7269   -1.5800    0.0895 C   0  0  0  0  0  0  0  0  0  0  0  0
   -4.5454   -1.6841    1.6016 C   0  0  0  0  0  0  0  0  0  0  0  0
   -3.6445   -0.6447    2.1970 C   0  0  0  0  0  0  0  0  0  0  0  0
   -3.0800    0.3792    1.5255 C   0  0  0  0  0  0  0  0  0  0  0  0
   -2.2969    1.4142    2.2971 C   0  0  0  0  0  0  0  0  0  0  0  0
   -3.3185    2.0451   -0.3983 C   0  0  0  0  0  0  0  0  0  0  0  0
   -5.9025    0.6424    0.0020 C   0  0  0  0  0  0  0  0  0  0  0  0
    3.9323    2.8003   -1.6154 H   0  0  0  0  0  0  0  0  0  0  0  0
    7.5579    2.2219    1.1369 H   0  0  0  0  0  0  0  0  0  0  0  0
    7.3856   -0.6261    3.1274 H   0  0  0  0  0  0  0  0  0  0  0  0
    5.8071   -1.1454    3.7190 H   0  0  0  0  0  0  0  0  0  0  0  0
    6.6389   -2.0739    2.4509 H   0  0  0  0  0  0  0  0  0  0  0  0
    2.0564    2.9475   -2.8477 H   0  0  0  0  0  0  0  0  0  0  0  0
   -0.1509   -2.1722   -0.2424 H   0  0  0  0  0  0  0  0  0  0  0  0
    1.4979   -3.7670   -1.1414 H   0  0  0  0  0  0  0  0  0  0  0  0
    2.1075   -2.5705   -2.2696 H   0  0  0  0  0  0  0  0  0  0  0  0
    0.4394   -3.1743   -2.4331 H   0  0  0  0  0  0  0  0  0  0  0  0
   -0.2811    0.4876   -3.3067 H   0  0  0  0  0  0  0  0  0  0  0  0
    0.8989   -0.8001   -3.5238 H   0  0  0  0  0  0  0  0  0  0  0  0
   -0.7711   -1.1925   -3.0915 H   0  0  0  0  0  0  0  0  0  0  0  0
   -0.6653    1.4280   -0.9152 H   0  0  0  0  0  0  0  0  0  0  0  0
   -0.4156    0.3404    0.4430 H   0  0  0  0  0  0  0  0  0  0  0  0
   -2.1050   -1.2264   -0.5218 H   0  0  0  0  0  0  0  0  0  0  0  0
   -2.3810   -0.1193   -1.8516 H   0  0  0  0  0  0  0  0  0  0  0  0
   -4.6709   -0.1748   -1.5237 H   0  0  0  0  0  0  0  0  0  0  0  0
   -3.9711   -2.1989   -0.4070 H   0  0  0  0  0  0  0  0  0  0  0  0
   -5.6875   -2.0298   -0.1923 H   0  0  0  0  0  0  0  0  0  0  0  0
   -5.5260   -1.5906    2.0849 H   0  0  0  0  0  0  0  0  0  0  0  0
   -4.1682   -2.6819    1.8536 H   0  0  0  0  0  0  0  0  0  0  0  0
   -3.4984   -0.7280    3.2728 H   0  0  0  0  0  0  0  0  0  0  0  0
   -2.8573    2.3536    2.3446 H   0  0  0  0  0  0  0  0  0  0  0  0
   -1.3256    1.6197    1.8449 H   0  0  0  0  0  0  0  0  0  0  0  0
   -2.1062    1.0984    3.3289 H   0  0  0  0  0  0  0  0  0  0  0  0
   -3.5394    2.1517   -1.4665 H   0  0  0  0  0  0  0  0  0  0  0  0
   -2.3706    2.5583   -0.2101 H   0  0  0  0  0  0  0  0  0  0  0  0
   -4.0802    2.5999    0.1602 H   0  0  0  0  0  0  0  0  0  0  0  0
   -6.8055    0.0673   -0.2319 H   0  0  0  0  0  0  0  0  0  0  0  0
   -5.9143    0.8617    1.0738 H   0  0  0  0  0  0  0  0  0  0  0  0
   -5.9870    1.5896   -0.5399 H   0  0  0  0  0  0  0  0  0  0  0  0
  1  2  2  0
  1  6  1  0
  1 32  1  0
  2  3  1  0
  2  7  1  0
  3  4  2  0
  3 10  1  0
  4  5  1  0
  4 18  1  0
  5  6  2  0
  5 16  1  0
  6 15  1  0
  7  8  1  0
  7 11  2  0
  8  9  2  0
  8 12  1  0
  9 10  1  0
  9 13  1  0
 10 14  2  0
 12 33  1  0
 13 34  1  0
 13 35  1  0
 13 36  1  0
 15 37  1  0
 16 17  1  0
 16 20  1  6
 16 21  1  0
 17 18  1  0
 17 19  1  0
 17 38  1  1
 19 39  1  0
 19 40  1  0
 19 41  1  0
 20 42  1  0
 20 43  1  0
 20 44  1  0
 21 22  1  0
 21 45  1  0
 21 46  1  0
 23 22  1  6
 22 47  1  0
 22 48  1  0
 23 28  1  0
 23 24  1  0
 23 30  1  0
 24 25  1  0
 24 31  1  0
 24 49  1  6
 25 26  1  0
 25 50  1  0
 25 51  1  0
 26 27  1  0
 26 52  1  0
 26 53  1  0
 27 28  2  0
 27 54  1  0
 28 29  1  0
 29 55  1  0
 29 56  1  0
 29 57  1  0
 30 58  1  0
 30 59  1  0
 30 60  1  0
 31 61  1  0
 31 62  1  0
 31 63  1  0
M  END
$$$$
