
 OpenBabel11301904193D

 48 51  0  0  1  0  0  0  0  0999 V2000
   -1.1689    2.8168    2.1291 C   0  0  0  0  0  0  0  0  0  0  0  0
   -1.3467    2.0674    3.3086 C   0  0  0  0  0  0  0  0  0  0  0  0
   -1.1395    0.6538    3.3278 C   0  0  0  0  0  0  0  0  0  0  0  0
   -0.7691    0.0389    2.1025 C   0  0  0  0  0  0  0  0  0  0  0  0
   -0.5026    0.7987    0.9442 C   0  0  0  0  0  0  0  0  0  0  0  0
   -0.7310    2.1854    0.9544 C   0  0  0  0  0  0  0  0  0  0  0  0
   -1.7219    2.7205    4.4360 N   0  0  0  0  0  0  0  0  0  0  0  0
   -1.9075    2.0908    5.6159 C   0  0  0  0  0  0  0  0  0  0  0  0
   -1.7032    0.7063    5.7025 C   0  0  0  0  0  0  0  0  0  0  0  0
   -1.3032   -0.0445    4.5670 C   0  0  0  0  0  0  0  0  0  0  0  0
   -1.0777   -1.5209    4.7601 C   0  0  1  0  0  0  0  0  0  0  0  0
   -2.3539   -2.3714    4.4237 C   0  0  2  0  0  0  0  0  0  0  0  0
   -3.5482   -2.0205    5.2956 N   0  0  1  0  0  0  0  0  0  0  0  0
   -3.3635   -2.4837    6.7225 C   0  0  0  0  0  0  0  0  0  0  0  0
   -3.1001   -4.0341    6.8074 C   0  0  1  0  0  0  0  0  0  0  0  0
   -3.2131   -4.6146    5.3524 C   0  0  1  0  0  0  0  0  0  0  0  0
   -2.1394   -3.9355    4.4365 C   0  0  0  0  0  0  0  0  0  0  0  0
   -2.6110   -2.1034    3.3929 H   0  0  0  0  0  0  0  0  0  0  0  0
    0.0897   -1.9599    4.0639 O   0  0  0  0  0  0  0  0  0  0  0  0
   -4.6237   -4.2508    4.7854 C   0  0  0  0  0  0  0  0  0  0  0  0
   -4.7811   -2.6928    4.7475 C   0  0  0  0  0  0  0  0  0  0  0  0
   -1.8233   -4.3727    7.4450 C   0  0  0  0  0  0  0  0  0  0  0  0
   -1.6345   -5.4410    8.2297 C   0  0  0  0  0  0  0  0  0  0  0  0
   -1.3416    3.8262    2.1217 H   0  0  0  0  0  0  0  0  0  0  0  0
   -0.6701   -0.9724    2.0272 H   0  0  0  0  0  0  0  0  0  0  0  0
   -0.5740    2.7370    0.1085 H   0  0  0  0  0  0  0  0  0  0  0  0
   -2.1959    2.6271    6.4360 H   0  0  0  0  0  0  0  0  0  0  0  0
   -1.8512    0.2581    6.6070 H   0  0  0  0  0  0  0  0  0  0  0  0
   -0.8028   -1.7082    5.7983 H   0  0  0  0  0  0  0  0  0  0  0  0
   -2.5681   -1.9158    7.1994 H   0  0  0  0  0  0  0  0  0  0  0  0
   -4.2591   -2.2403    7.2994 H   0  0  0  0  0  0  0  0  0  0  0  0
   -3.9047   -4.4760    7.4094 H   0  0  0  0  0  0  0  0  0  0  0  0
   -3.0896   -5.7011    5.3601 H   0  0  0  0  0  0  0  0  0  0  0  0
   -1.1462   -4.2049    4.7977 H   0  0  0  0  0  0  0  0  0  0  0  0
   -2.2176   -4.3384    3.4210 H   0  0  0  0  0  0  0  0  0  0  0  0
    0.2430   -2.8842    4.3492 H   0  0  0  0  0  0  0  0  0  0  0  0
   -4.7426   -4.6748    3.7852 H   0  0  0  0  0  0  0  0  0  0  0  0
   -5.3969   -4.6875    5.4220 H   0  0  0  0  0  0  0  0  0  0  0  0
   -5.6559   -2.3905    5.3306 H   0  0  0  0  0  0  0  0  0  0  0  0
   -4.9672   -2.3568    3.7236 H   0  0  0  0  0  0  0  0  0  0  0  0
   -1.0391   -3.7833    7.2791 H   0  0  0  0  0  0  0  0  0  0  0  0
   -2.3764   -6.0661    8.4344 H   0  0  0  0  0  0  0  0  0  0  0  0
   -0.7394   -5.6221    8.6199 H   0  0  0  0  0  0  0  0  0  0  0  0
   -0.0277    0.1981   -0.1912 O   0  0  0  0  0  0  0  0  0  0  0  0
    1.4057    0.0372   -0.1661 C   0  0  0  0  0  0  0  0  0  0  0  0
    1.7309   -0.5792    0.6773 H   0  0  0  0  0  0  0  0  0  0  0  0
    1.7079   -0.4626   -1.0863 H   0  0  0  0  0  0  0  0  0  0  0  0
    1.9165    1.0025   -0.1229 H   0  0  0  0  0  0  0  0  0  0  0  0
  1  2  2  0  0  0  0
  2  3  1  0  0  0  0
  2  7  1  0  0  0  0
  3 10  1  0  0  0  0
  4  3  2  0  0  0  0
  5  6  2  0  0  0  0
  5  4  1  0  0  0  0
  6  1  1  0  0  0  0
  7  8  2  0  0  0  0
  8  9  1  0  0  0  0
  8 27  1  0  0  0  0
  9 28  1  0  0  0  0
 10 11  1  0  0  0  0
 10  9  2  0  0  0  0
 11 29  1  1  0  0  0
 12 17  1  0  0  0  0
 12 11  1  0  0  0  0
 12 13  1  1  0  0  0
 13 21  1  6  0  0  0
 13 14  1  0  0  0  0
 14 15  1  0  0  0  0
 14 30  1  0  0  0  0
 14 31  1  0  0  0  0
 15 16  1  6  0  0  0
 15 32  1  0  0  0  0
 15 22  1  0  0  0  0
 16 33  1  1  0  0  0
 17 34  1  0  0  0  0
 17 16  1  0  0  0  0
 18 12  1  0  0  0  0
 19 36  1  0  0  0  0
 19 11  1  0  0  0  0
 20 16  1  0  0  0  0
 20 38  1  0  0  0  0
 21 20  1  0  0  0  0
 21 39  1  0  0  0  0
 22 23  2  0  0  0  0
 23 42  1  0  0  0  0
 23 43  1  0  0  0  0
 24  1  1  0  0  0  0
 25  4  1  0  0  0  0
 26  6  1  0  0  0  0
 35 17  1  0  0  0  0
 37 20  1  0  0  0  0
 40 21  1  0  0  0  0
 41 22  1  0  0  0  0
 44 45  1  0  0  0  0
 44  5  1  0  0  0  0
 45 48  1  0  0  0  0
 45 46  1  0  0  0  0
 47 45  1  0  0  0  0
M  END
$$$$
