
 OpenBabel09302112093D

 49 52  0  0  1  0  0  0  0  0999 V2000
   -2.7747    0.0312    1.9208 C   0  0  0  0  0  0  0  0  0  0  0  0
   -2.2036   -0.5306    0.8782 C   0  0  0  0  0  0  0  0  0  0  0  0
   -2.0448    0.1712   -0.4108 C   0  0  1  0  0  0  0  0  0  0  0  0
   -2.7729    1.4522   -0.5521 C   0  0  0  0  0  0  0  0  0  0  0  0
   -3.8686    1.7105    0.4514 C   0  0  0  0  0  0  0  0  0  0  0  0
   -3.2734    1.3911    1.7800 C   0  0  0  0  0  0  0  0  0  0  0  0
   -1.6775   -1.9380    0.9823 C   0  0  0  0  0  0  0  0  0  0  0  0
   -0.4574   -2.1073    0.1113 C   0  0  0  0  0  0  0  0  0  0  0  0
    0.2132   -0.7694    0.0582 C   0  0  1  0  0  0  0  0  0  0  0  0
   -0.5812    0.2524   -0.7233 C   0  0  1  0  0  0  0  0  0  0  0  0
    1.5620   -0.7649   -0.5447 C   0  0  1  0  0  0  0  0  0  0  0  0
    2.2450    0.4821    0.0418 C   0  0  2  0  0  0  0  0  0  0  0  0
    1.5062    1.6511   -0.4667 C   0  0  0  0  0  0  0  0  0  0  0  0
    0.0362    1.5997   -0.4696 C   0  0  0  0  0  0  0  0  0  0  0  0
    3.6252    0.2986   -0.4896 C   0  0  2  0  0  0  0  0  0  0  0  0
    3.8631   -1.2115   -0.4717 C   0  0  0  0  0  0  0  0  0  0  0  0
    2.4920   -1.8332   -0.1831 C   0  0  0  0  0  0  0  0  0  0  0  0
    3.7096    0.8161   -1.7714 O   0  0  0  0  0  0  0  0  0  0  0  0
    2.3027    0.3948    1.5511 C   0  0  0  0  0  0  0  0  0  0  0  0
    0.2354   -0.3835    1.1204 H   0  0  0  0  0  0  0  0  0  0  0  0
   -2.6447   -0.7843   -1.4672 C   0  0  0  0  0  0  0  0  0  0  0  0
   -0.4259    0.0453   -1.8041 H   0  0  0  0  0  0  0  0  0  0  0  0
    1.5569   -0.6234   -1.6442 H   0  0  0  0  0  0  0  0  0  0  0  0
   -3.2050    2.2110    2.6969 O   0  0  0  0  0  0  0  0  0  0  0  0
   -2.8598   -0.5201    2.8589 H   0  0  0  0  0  0  0  0  0  0  0  0
   -3.2815    1.5309   -1.5620 H   0  0  0  0  0  0  0  0  0  0  0  0
   -2.1312    2.3571   -0.5196 H   0  0  0  0  0  0  0  0  0  0  0  0
   -4.1323    2.7899    0.3859 H   0  0  0  0  0  0  0  0  0  0  0  0
   -4.7679    1.0870    0.2589 H   0  0  0  0  0  0  0  0  0  0  0  0
   -2.4626   -2.6787    0.7963 H   0  0  0  0  0  0  0  0  0  0  0  0
   -1.3559   -2.0684    2.0538 H   0  0  0  0  0  0  0  0  0  0  0  0
   -0.6425   -2.5694   -0.8532 H   0  0  0  0  0  0  0  0  0  0  0  0
    0.2631   -2.7924    0.6485 H   0  0  0  0  0  0  0  0  0  0  0  0
    1.8174    2.5460    0.1515 H   0  0  0  0  0  0  0  0  0  0  0  0
    1.9226    1.8957   -1.4888 H   0  0  0  0  0  0  0  0  0  0  0  0
   -0.2933    2.2540   -1.3335 H   0  0  0  0  0  0  0  0  0  0  0  0
   -0.3835    2.0503    0.4582 H   0  0  0  0  0  0  0  0  0  0  0  0
    4.4031    0.7367    0.1788 H   0  0  0  0  0  0  0  0  0  0  0  0
    4.1985   -1.4827   -1.4966 H   0  0  0  0  0  0  0  0  0  0  0  0
    4.5686   -1.5110    0.3056 H   0  0  0  0  0  0  0  0  0  0  0  0
    2.4236   -2.2605    0.8109 H   0  0  0  0  0  0  0  0  0  0  0  0
    2.3807   -2.6804   -0.9099 H   0  0  0  0  0  0  0  0  0  0  0  0
    4.3127    1.5885   -1.8263 H   0  0  0  0  0  0  0  0  0  0  0  0
    2.0912   -0.5976    1.9449 H   0  0  0  0  0  0  0  0  0  0  0  0
    3.3481    0.6504    1.8926 H   0  0  0  0  0  0  0  0  0  0  0  0
    1.6200    1.1126    2.0477 H   0  0  0  0  0  0  0  0  0  0  0  0
   -3.6005   -0.3740   -1.8798 H   0  0  0  0  0  0  0  0  0  0  0  0
   -2.8885   -1.7632   -1.0586 H   0  0  0  0  0  0  0  0  0  0  0  0
   -1.9682   -0.8617   -2.3541 H   0  0  0  0  0  0  0  0  0  0  0  0
  1 25  1  0  0  0  0
  2  7  1  0  0  0  0
  2  1  2  0  0  0  0
  3 21  1  6  0  0  0
  3  2  1  0  0  0  0
  4 27  1  0  0  0  0
  4  3  1  0  0  0  0
  4  5  1  0  0  0  0
  5  6  1  0  0  0  0
  6  1  1  0  0  0  0
  6 24  2  0  0  0  0
  7 31  1  0  0  0  0
  8 33  1  0  0  0  0
  8  7  1  0  0  0  0
  9  8  1  0  0  0  0
  9 20  1  1  0  0  0
 10 22  1  6  0  0  0
 10 14  1  0  0  0  0
 10  3  1  0  0  0  0
 10  9  1  0  0  0  0
 11 23  1  6  0  0  0
 11 17  1  0  0  0  0
 11 12  1  0  0  0  0
 11  9  1  0  0  0  0
 12 19  1  1  0  0  0
 13 12  1  0  0  0  0
 13 34  1  0  0  0  0
 14 13  1  0  0  0  0
 14 37  1  0  0  0  0
 15 16  1  0  0  0  0
 15 12  1  0  0  0  0
 15 38  1  1  0  0  0
 16 17  1  0  0  0  0
 16 40  1  0  0  0  0
 17 41  1  0  0  0  0
 18 15  1  0  0  0  0
 19 45  1  0  0  0  0
 19 44  1  0  0  0  0
 19 46  1  0  0  0  0
 21 48  1  0  0  0  0
 26  4  1  0  0  0  0
 28  5  1  0  0  0  0
 29  5  1  0  0  0  0
 30  7  1  0  0  0  0
 32  8  1  0  0  0  0
 35 13  1  0  0  0  0
 36 14  1  0  0  0  0
 39 16  1  0  0  0  0
 42 17  1  0  0  0  0
 43 18  1  0  0  0  0
 47 21  1  0  0  0  0
 49 21  1  0  0  0  0
M  END
$$$$
