
 OpenBabel09302112093D

 49 52  0  0  1  0  0  0  0  0999 V2000
    3.3473   -1.3700   -0.7468 C   0  0  0  0  0  0  0  0  0  0  0  0
    2.4806   -0.8897    0.1284 C   0  0  0  0  0  0  0  0  0  0  0  0
    2.0052    0.5180    0.1745 C   0  0  1  0  0  0  0  0  0  0  0  0
    2.7797    1.3442   -0.7842 C   0  0  0  0  0  0  0  0  0  0  0  0
    3.1079    0.6947   -2.1033 C   0  0  0  0  0  0  0  0  0  0  0  0
    3.9132   -0.5009   -1.7636 C   0  0  0  0  0  0  0  0  0  0  0  0
    1.9507   -1.8795    1.1443 C   0  0  0  0  0  0  0  0  0  0  0  0
    0.5119   -1.5354    1.3989 C   0  0  0  0  0  0  0  0  0  0  0  0
   -0.1332   -0.7858    0.2828 C   0  0  1  0  0  0  0  0  0  0  0  0
    0.5346    0.4703   -0.1540 C   0  0  2  0  0  0  0  0  0  0  0  0
   -1.5652   -0.5002    0.6026 C   0  0  1  0  0  0  0  0  0  0  0  0
   -2.2159    0.4127   -0.4061 C   0  0  2  0  0  0  0  0  0  0  0  0
   -1.5793    1.7634   -0.2871 C   0  0  0  0  0  0  0  0  0  0  0  0
   -0.1892    1.6947    0.3631 C   0  0  0  0  0  0  0  0  0  0  0  0
   -3.6432    0.3969    0.1406 C   0  0  2  0  0  0  0  0  0  0  0  0
   -3.8408   -1.0572    0.4663 C   0  0  0  0  0  0  0  0  0  0  0  0
   -2.4703   -1.6954    0.5186 C   0  0  0  0  0  0  0  0  0  0  0  0
   -3.7503    1.2156    1.2596 O   0  0  0  0  0  0  0  0  0  0  0  0
   -2.2650   -0.1351   -1.7789 C   0  0  0  0  0  0  0  0  0  0  0  0
   -0.1434   -1.4865   -0.6047 H   0  0  0  0  0  0  0  0  0  0  0  0
    2.2723    1.1114    1.5499 C   0  0  0  0  0  0  0  0  0  0  0  0
    0.4855    0.5656   -1.2819 H   0  0  0  0  0  0  0  0  0  0  0  0
   -1.7020   -0.0555    1.6026 H   0  0  0  0  0  0  0  0  0  0  0  0
    5.0037   -0.7845   -2.2845 O   0  0  0  0  0  0  0  0  0  0  0  0
    3.6432   -2.4295   -0.7081 H   0  0  0  0  0  0  0  0  0  0  0  0
    2.3681    2.3634   -0.9388 H   0  0  0  0  0  0  0  0  0  0  0  0
    3.7840    1.5375   -0.2971 H   0  0  0  0  0  0  0  0  0  0  0  0
    2.2016    0.4394   -2.6873 H   0  0  0  0  0  0  0  0  0  0  0  0
    3.7325    1.4175   -2.6662 H   0  0  0  0  0  0  0  0  0  0  0  0
    2.5626   -1.7113    2.0544 H   0  0  0  0  0  0  0  0  0  0  0  0
    2.0129   -2.9030    0.7598 H   0  0  0  0  0  0  0  0  0  0  0  0
   -0.0446   -2.5177    1.4668 H   0  0  0  0  0  0  0  0  0  0  0  0
    0.3494   -1.0851    2.4005 H   0  0  0  0  0  0  0  0  0  0  0  0
   -2.1780    2.5070    0.2449 H   0  0  0  0  0  0  0  0  0  0  0  0
   -1.4025    2.1543   -1.3177 H   0  0  0  0  0  0  0  0  0  0  0  0
    0.3292    2.6173    0.0435 H   0  0  0  0  0  0  0  0  0  0  0  0
   -0.2768    1.7286    1.4608 H   0  0  0  0  0  0  0  0  0  0  0  0
   -4.3554    0.6846   -0.6534 H   0  0  0  0  0  0  0  0  0  0  0  0
   -4.3812   -1.1333    1.4310 H   0  0  0  0  0  0  0  0  0  0  0  0
   -4.4800   -1.5723   -0.2875 H   0  0  0  0  0  0  0  0  0  0  0  0
   -2.2663   -2.3436   -0.3462 H   0  0  0  0  0  0  0  0  0  0  0  0
   -2.4165   -2.2890    1.4634 H   0  0  0  0  0  0  0  0  0  0  0  0
   -4.2272    2.0448    0.9985 H   0  0  0  0  0  0  0  0  0  0  0  0
   -1.3837   -0.6799   -2.1204 H   0  0  0  0  0  0  0  0  0  0  0  0
   -2.5064    0.6786   -2.4864 H   0  0  0  0  0  0  0  0  0  0  0  0
   -3.1240   -0.8582   -1.8566 H   0  0  0  0  0  0  0  0  0  0  0  0
    1.4527    1.0255    2.2534 H   0  0  0  0  0  0  0  0  0  0  0  0
    3.1707    0.6208    2.0256 H   0  0  0  0  0  0  0  0  0  0  0  0
    2.5414    2.1923    1.4814 H   0  0  0  0  0  0  0  0  0  0  0  0
  1 25  1  0  0  0  0
  1  2  2  0  0  0  0
  2  3  1  0  0  0  0
  2  7  1  0  0  0  0
  3 21  1  1  0  0  0
  4 27  1  0  0  0  0
  4  3  1  0  0  0  0
  5  6  1  0  0  0  0
  5  4  1  0  0  0  0
  6  1  1  0  0  0  0
  7  8  1  0  0  0  0
  7 30  1  0  0  0  0
  8 32  1  0  0  0  0
  8 33  1  0  0  0  0
  9 20  1  6  0  0  0
  9 11  1  0  0  0  0
  9  8  1  0  0  0  0
 10 22  1  6  0  0  0
 10  3  1  0  0  0  0
 10  9  1  0  0  0  0
 10 14  1  0  0  0  0
 11 23  1  1  0  0  0
 12 19  1  6  0  0  0
 12 13  1  0  0  0  0
 12 15  1  0  0  0  0
 12 11  1  0  0  0  0
 13 34  1  0  0  0  0
 13 14  1  0  0  0  0
 14 37  1  0  0  0  0
 15 38  1  6  0  0  0
 15 16  1  0  0  0  0
 15 18  1  0  0  0  0
 16 17  1  0  0  0  0
 16 39  1  0  0  0  0
 17 11  1  0  0  0  0
 17 42  1  0  0  0  0
 21 48  1  0  0  0  0
 21 47  1  0  0  0  0
 24  6  2  0  0  0  0
 26  4  1  0  0  0  0
 28  5  1  0  0  0  0
 29  5  1  0  0  0  0
 31  7  1  0  0  0  0
 35 13  1  0  0  0  0
 36 14  1  0  0  0  0
 40 16  1  0  0  0  0
 41 17  1  0  0  0  0
 43 18  1  0  0  0  0
 44 19  1  0  0  0  0
 45 19  1  0  0  0  0
 46 19  1  0  0  0  0
 49 21  1  0  0  0  0
M  END
$$$$
