
 OpenBabel09302112093D

 49 52  0  0  1  0  0  0  0  0999 V2000
   -3.1473    0.6508   -1.3518 C   0  0  0  0  0  0  0  0  0  0  0  0
   -2.3617    0.7552   -0.2949 C   0  0  0  0  0  0  0  0  0  0  0  0
   -1.9240   -0.3611    0.5688 C   0  0  1  0  0  0  0  0  0  0  0  0
   -2.6004   -1.6577    0.3489 C   0  0  0  0  0  0  0  0  0  0  0  0
   -3.8061   -1.6179   -0.5728 C   0  0  0  0  0  0  0  0  0  0  0  0
   -3.6275   -0.6741   -1.6979 C   0  0  0  0  0  0  0  0  0  0  0  0
   -1.8823    2.1301    0.0396 C   0  0  0  0  0  0  0  0  0  0  0  0
   -0.4133    2.0839    0.4032 C   0  0  0  0  0  0  0  0  0  0  0  0
    0.1462    0.8280   -0.2195 C   0  0  1  0  0  0  0  0  0  0  0  0
   -0.3943   -0.4282    0.4805 C   0  0  1  0  0  0  0  0  0  0  0  0
    1.5886    0.7853   -0.3577 C   0  0  2  0  0  0  0  0  0  0  0  0
    2.2631   -0.5204   -0.0050 C   0  0  1  0  0  0  0  0  0  0  0  0
    1.5112   -1.5593   -0.7241 C   0  0  0  0  0  0  0  0  0  0  0  0
    0.0965   -1.6179   -0.2668 C   0  0  0  0  0  0  0  0  0  0  0  0
    3.6230   -0.1776   -0.5797 C   0  0  1  0  0  0  0  0  0  0  0  0
    3.8270    1.2223    0.0231 C   0  0  0  0  0  0  0  0  0  0  0  0
    2.4390    1.7525    0.3677 C   0  0  0  0  0  0  0  0  0  0  0  0
    3.5508   -0.0889   -1.9599 O   0  0  0  0  0  0  0  0  0  0  0  0
    2.4169   -0.8443    1.4128 C   0  0  0  0  0  0  0  0  0  0  0  0
   -0.3620    0.7717   -1.2322 H   0  0  0  0  0  0  0  0  0  0  0  0
   -2.3429    0.0772    1.9903 C   0  0  0  0  0  0  0  0  0  0  0  0
   -0.0408   -0.3545    1.5129 H   0  0  0  0  0  0  0  0  0  0  0  0
    1.8514    0.9473   -1.4536 H   0  0  0  0  0  0  0  0  0  0  0  0
   -3.8770   -0.9997   -2.8863 O   0  0  0  0  0  0  0  0  0  0  0  0
   -3.4391    1.5072   -1.9602 H   0  0  0  0  0  0  0  0  0  0  0  0
   -3.0134   -2.1221    1.3005 H   0  0  0  0  0  0  0  0  0  0  0  0
   -1.9694   -2.4842   -0.0492 H   0  0  0  0  0  0  0  0  0  0  0  0
   -4.6954   -1.2658    0.0048 H   0  0  0  0  0  0  0  0  0  0  0  0
   -4.0208   -2.6069   -0.9761 H   0  0  0  0  0  0  0  0  0  0  0  0
   -1.9393    2.7977   -0.8718 H   0  0  0  0  0  0  0  0  0  0  0  0
   -2.5082    2.6372    0.7920 H   0  0  0  0  0  0  0  0  0  0  0  0
    0.1589    2.9290   -0.0714 H   0  0  0  0  0  0  0  0  0  0  0  0
   -0.2174    2.1618    1.4759 H   0  0  0  0  0  0  0  0  0  0  0  0
    2.0524   -2.5408   -0.5865 H   0  0  0  0  0  0  0  0  0  0  0  0
    1.6171   -1.3612   -1.8313 H   0  0  0  0  0  0  0  0  0  0  0  0
    0.0091   -2.5406    0.3622 H   0  0  0  0  0  0  0  0  0  0  0  0
   -0.5217   -1.6905   -1.2103 H   0  0  0  0  0  0  0  0  0  0  0  0
    4.4084   -0.8442   -0.2111 H   0  0  0  0  0  0  0  0  0  0  0  0
    4.4799    1.1781    0.9085 H   0  0  0  0  0  0  0  0  0  0  0  0
    4.2196    1.8699   -0.7873 H   0  0  0  0  0  0  0  0  0  0  0  0
    2.2726    2.7668   -0.0944 H   0  0  0  0  0  0  0  0  0  0  0  0
    2.2686    1.8682    1.4288 H   0  0  0  0  0  0  0  0  0  0  0  0
    4.0955   -0.8241   -2.3372 H   0  0  0  0  0  0  0  0  0  0  0  0
    1.8606   -1.7770    1.7367 H   0  0  0  0  0  0  0  0  0  0  0  0
    2.2419   -0.0389    2.1436 H   0  0  0  0  0  0  0  0  0  0  0  0
    3.4921   -1.1536    1.6066 H   0  0  0  0  0  0  0  0  0  0  0  0
   -2.2778    1.1410    2.1476 H   0  0  0  0  0  0  0  0  0  0  0  0
   -3.3927   -0.2420    2.1445 H   0  0  0  0  0  0  0  0  0  0  0  0
   -1.7151   -0.4678    2.7273 H   0  0  0  0  0  0  0  0  0  0  0  0
  1  2  2  0  0  0  0
  2  7  1  0  0  0  0
  2  3  1  0  0  0  0
  3 21  1  1  0  0  0
  4  3  1  0  0  0  0
  4 26  1  0  0  0  0
  5 28  1  0  0  0  0
  5  4  1  0  0  0  0
  6  1  1  0  0  0  0
  6  5  1  0  0  0  0
  7  8  1  0  0  0  0
  7 31  1  0  0  0  0
  8 33  1  0  0  0  0
  9 20  1  6  0  0  0
  9  8  1  0  0  0  0
  9 10  1  0  0  0  0
 10  3  1  0  0  0  0
 10 22  1  1  0  0  0
 11 23  1  6  0  0  0
 11  9  1  0  0  0  0
 11 12  1  0  0  0  0
 11 17  1  0  0  0  0
 12 19  1  1  0  0  0
 13 34  1  0  0  0  0
 13 14  1  0  0  0  0
 13 12  1  0  0  0  0
 14 36  1  0  0  0  0
 14 10  1  0  0  0  0
 15 38  1  1  0  0  0
 15 12  1  0  0  0  0
 15 16  1  0  0  0  0
 16 17  1  0  0  0  0
 16 39  1  0  0  0  0
 17 42  1  0  0  0  0
 18 15  1  0  0  0  0
 19 46  1  0  0  0  0
 19 44  1  0  0  0  0
 19 45  1  0  0  0  0
 21 48  1  0  0  0  0
 21 47  1  0  0  0  0
 21 49  1  0  0  0  0
 24  6  2  0  0  0  0
 25  1  1  0  0  0  0
 27  4  1  0  0  0  0
 29  5  1  0  0  0  0
 30  7  1  0  0  0  0
 32  8  1  0  0  0  0
 35 13  1  0  0  0  0
 37 14  1  0  0  0  0
 40 16  1  0  0  0  0
 41 17  1  0  0  0  0
 43 18  1  0  0  0  0
M  END
$$$$
