
 OpenBabel09302112093D

 49 52  0  0  1  0  0  0  0  0999 V2000
    3.4116    0.5804   -1.6026 C   0  0  0  0  0  0  0  0  0  0  0  0
    2.3258    0.7751   -0.8767 C   0  0  0  0  0  0  0  0  0  0  0  0
    1.9082   -0.2130    0.1492 C   0  0  2  0  0  0  0  0  0  0  0  0
    2.6152   -1.5227    0.0324 C   0  0  0  0  0  0  0  0  0  0  0  0
    4.1025   -1.3645   -0.1947 C   0  0  0  0  0  0  0  0  0  0  0  0
    4.2648   -0.5926   -1.4549 C   0  0  0  0  0  0  0  0  0  0  0  0
    1.5521    1.9917   -1.1186 C   0  0  0  0  0  0  0  0  0  0  0  0
    0.2927    2.1227   -0.3548 C   0  0  0  0  0  0  0  0  0  0  0  0
   -0.2415    0.9059    0.3068 C   0  0  1  0  0  0  0  0  0  0  0  0
    0.4165   -0.3840   -0.0587 C   0  0  1  0  0  0  0  0  0  0  0  0
   -1.7514    0.8202    0.1623 C   0  0  2  0  0  0  0  0  0  0  0  0
   -2.3319   -0.3957    0.7851 C   0  0  2  0  0  0  0  0  0  0  0  0
   -1.5898   -1.6674    0.3589 C   0  0  0  0  0  0  0  0  0  0  0  0
   -0.1537   -1.4777    0.8135 C   0  0  0  0  0  0  0  0  0  0  0  0
   -3.7152   -0.4984    0.1723 C   0  0  1  0  0  0  0  0  0  0  0  0
   -3.6541    0.2708   -1.1107 C   0  0  0  0  0  0  0  0  0  0  0  0
   -2.2059    0.7555   -1.2548 C   0  0  0  0  0  0  0  0  0  0  0  0
   -4.7102   -0.0361    1.0055 O   0  0  0  0  0  0  0  0  0  0  0  0
   -2.3736   -0.3747    2.2794 C   0  0  0  0  0  0  0  0  0  0  0  0
   -0.0716    1.0410    1.4179 H   0  0  0  0  0  0  0  0  0  0  0  0
    2.1976    0.3385    1.5450 C   0  0  0  0  0  0  0  0  0  0  0  0
    0.2624   -0.6769   -1.1097 H   0  0  0  0  0  0  0  0  0  0  0  0
   -2.1696    1.7104    0.6383 H   0  0  0  0  0  0  0  0  0  0  0  0
    5.0895   -0.9254   -2.3493 O   0  0  0  0  0  0  0  0  0  0  0  0
    3.7273    1.3092   -2.3667 H   0  0  0  0  0  0  0  0  0  0  0  0
    2.2089   -2.1837   -0.7330 H   0  0  0  0  0  0  0  0  0  0  0  0
    2.5018   -2.0591    1.0197 H   0  0  0  0  0  0  0  0  0  0  0  0
    4.5863   -0.7531    0.6021 H   0  0  0  0  0  0  0  0  0  0  0  0
    4.5477   -2.3755   -0.2698 H   0  0  0  0  0  0  0  0  0  0  0  0
    1.3904    2.1428   -2.2277 H   0  0  0  0  0  0  0  0  0  0  0  0
    2.2331    2.8552   -0.8530 H   0  0  0  0  0  0  0  0  0  0  0  0
   -0.5045    2.4772   -1.0763 H   0  0  0  0  0  0  0  0  0  0  0  0
    0.3566    2.9911    0.3700 H   0  0  0  0  0  0  0  0  0  0  0  0
   -1.5531   -1.7551   -0.7512 H   0  0  0  0  0  0  0  0  0  0  0  0
   -2.0728   -2.5278    0.8330 H   0  0  0  0  0  0  0  0  0  0  0  0
    0.4402   -2.4042    0.7320 H   0  0  0  0  0  0  0  0  0  0  0  0
   -0.1880   -1.1994    1.8875 H   0  0  0  0  0  0  0  0  0  0  0  0
   -3.9657   -1.5522   -0.0852 H   0  0  0  0  0  0  0  0  0  0  0  0
   -3.9594   -0.3086   -1.9998 H   0  0  0  0  0  0  0  0  0  0  0  0
   -4.3581    1.1512   -1.0761 H   0  0  0  0  0  0  0  0  0  0  0  0
   -1.6140    0.0741   -1.8920 H   0  0  0  0  0  0  0  0  0  0  0  0
   -2.2940    1.7627   -1.7449 H   0  0  0  0  0  0  0  0  0  0  0  0
   -4.6691    0.9290    1.2002 H   0  0  0  0  0  0  0  0  0  0  0  0
   -3.3353   -0.0004    2.6860 H   0  0  0  0  0  0  0  0  0  0  0  0
   -2.2441   -1.3986    2.7160 H   0  0  0  0  0  0  0  0  0  0  0  0
   -1.5916    0.3218    2.6485 H   0  0  0  0  0  0  0  0  0  0  0  0
    3.1635   -0.0806    1.8938 H   0  0  0  0  0  0  0  0  0  0  0  0
    1.4337   -0.0275    2.2844 H   0  0  0  0  0  0  0  0  0  0  0  0
    2.2899    1.4282    1.5485 H   0  0  0  0  0  0  0  0  0  0  0  0
  1  6  1  0  0  0  0
  1  2  2  0  0  0  0
  2  3  1  0  0  0  0
  3 21  1  1  0  0  0
  4  3  1  0  0  0  0
  4 27  1  0  0  0  0
  5  4  1  0  0  0  0
  5 28  1  0  0  0  0
  6  5  1  0  0  0  0
  7  2  1  0  0  0  0
  7 31  1  0  0  0  0
  7  8  1  0  0  0  0
  8  9  1  0  0  0  0
  8 33  1  0  0  0  0
  9 20  1  1  0  0  0
 10 22  1  6  0  0  0
 10  3  1  0  0  0  0
 10  9  1  0  0  0  0
 10 14  1  0  0  0  0
 11  9  1  0  0  0  0
 11 23  1  1  0  0  0
 11 12  1  0  0  0  0
 12 19  1  1  0  0  0
 13 12  1  0  0  0  0
 13 14  1  0  0  0  0
 13 35  1  0  0  0  0
 14 37  1  0  0  0  0
 15 38  1  6  0  0  0
 15 12  1  0  0  0  0
 15 18  1  0  0  0  0
 16 40  1  0  0  0  0
 16 15  1  0  0  0  0
 17 16  1  0  0  0  0
 17 11  1  0  0  0  0
 18 43  1  0  0  0  0
 19 46  1  0  0  0  0
 19 44  1  0  0  0  0
 19 45  1  0  0  0  0
 21 49  1  0  0  0  0
 21 47  1  0  0  0  0
 21 48  1  0  0  0  0
 24  6  2  0  0  0  0
 25  1  1  0  0  0  0
 26  4  1  0  0  0  0
 29  5  1  0  0  0  0
 30  7  1  0  0  0  0
 32  8  1  0  0  0  0
 34 13  1  0  0  0  0
 36 14  1  0  0  0  0
 39 16  1  0  0  0  0
 41 17  1  0  0  0  0
 42 17  1  0  0  0  0
M  END
$$$$
