
 OpenBabel09302112093D

 49 52  0  0  1  0  0  0  0  0999 V2000
    3.3978    0.4009    1.4623 C   0  0  0  0  0  0  0  0  0  0  0  0
    2.3381   -0.2526    1.0816 C   0  0  0  0  0  0  0  0  0  0  0  0
    1.9528   -0.2742   -0.3547 C   0  0  2  0  0  0  0  0  0  0  0  0
    2.3310    1.0222   -1.0476 C   0  0  0  0  0  0  0  0  0  0  0  0
    3.7547    1.4144   -0.8102 C   0  0  0  0  0  0  0  0  0  0  0  0
    4.2589    1.1369    0.5304 C   0  0  0  0  0  0  0  0  0  0  0  0
    1.5271   -0.9682    2.0967 C   0  0  0  0  0  0  0  0  0  0  0  0
    0.1273   -0.3617    1.8730 C   0  0  0  0  0  0  0  0  0  0  0  0
   -0.3062   -1.0068    0.5689 C   0  0  1  0  0  0  0  0  0  0  0  0
    0.5361   -0.6779   -0.6089 C   0  0  2  0  0  0  0  0  0  0  0  0
   -1.7577   -0.8491    0.4341 C   0  0  2  0  0  0  0  0  0  0  0  0
   -2.2571    0.1452   -0.5860 C   0  0  1  0  0  0  0  0  0  0  0  0
   -1.5870   -0.2201   -1.8621 C   0  0  0  0  0  0  0  0  0  0  0  0
   -0.1366    0.2345   -1.6157 C   0  0  0  0  0  0  0  0  0  0  0  0
   -3.7251   -0.1985   -0.5136 C   0  0  2  0  0  0  0  0  0  0  0  0
   -3.9315   -0.1988    1.0054 C   0  0  0  0  0  0  0  0  0  0  0  0
   -2.5358   -0.3777    1.6245 C   0  0  0  0  0  0  0  0  0  0  0  0
   -4.4814    0.8150   -1.1011 O   0  0  0  0  0  0  0  0  0  0  0  0
   -2.1257    1.5739   -0.1978 C   0  0  0  0  0  0  0  0  0  0  0  0
   -0.1496   -2.1147    0.8073 H   0  0  0  0  0  0  0  0  0  0  0  0
    2.9302   -1.3031   -0.9676 C   0  0  0  0  0  0  0  0  0  0  0  0
    0.6127   -1.6370   -1.2186 H   0  0  0  0  0  0  0  0  0  0  0  0
   -2.2666   -1.8218    0.1359 H   0  0  0  0  0  0  0  0  0  0  0  0
    5.3878    1.5162    0.8683 O   0  0  0  0  0  0  0  0  0  0  0  0
    3.7026    0.4329    2.5152 H   0  0  0  0  0  0  0  0  0  0  0  0
    1.6336    1.8455   -0.8047 H   0  0  0  0  0  0  0  0  0  0  0  0
    2.2668    0.8297   -2.1387 H   0  0  0  0  0  0  0  0  0  0  0  0
    4.4675    0.9739   -1.5402 H   0  0  0  0  0  0  0  0  0  0  0  0
    3.8171    2.5253   -0.9691 H   0  0  0  0  0  0  0  0  0  0  0  0
    1.8674   -0.8278    3.1141 H   0  0  0  0  0  0  0  0  0  0  0  0
    1.5285   -2.0405    1.8166 H   0  0  0  0  0  0  0  0  0  0  0  0
   -0.4917   -0.7771    2.6881 H   0  0  0  0  0  0  0  0  0  0  0  0
    0.1814    0.7208    1.8537 H   0  0  0  0  0  0  0  0  0  0  0  0
   -1.6425   -1.3184   -1.9883 H   0  0  0  0  0  0  0  0  0  0  0  0
   -1.9469    0.3428   -2.7299 H   0  0  0  0  0  0  0  0  0  0  0  0
   -0.2392    1.2706   -1.3106 H   0  0  0  0  0  0  0  0  0  0  0  0
    0.3488    0.1963   -2.6028 H   0  0  0  0  0  0  0  0  0  0  0  0
   -3.9015   -1.1878   -0.9450 H   0  0  0  0  0  0  0  0  0  0  0  0
   -4.4101    0.7330    1.3472 H   0  0  0  0  0  0  0  0  0  0  0  0
   -4.5045   -1.1063    1.2926 H   0  0  0  0  0  0  0  0  0  0  0  0
   -2.1257    0.5938    1.9670 H   0  0  0  0  0  0  0  0  0  0  0  0
   -2.5680   -1.1166    2.4479 H   0  0  0  0  0  0  0  0  0  0  0  0
   -4.7977    0.4858   -1.9789 H   0  0  0  0  0  0  0  0  0  0  0  0
   -2.9985    1.8954    0.4450 H   0  0  0  0  0  0  0  0  0  0  0  0
   -1.2374    1.8683    0.3475 H   0  0  0  0  0  0  0  0  0  0  0  0
   -2.2754    2.1736   -1.1431 H   0  0  0  0  0  0  0  0  0  0  0  0
    2.6410   -2.3310   -0.6871 H   0  0  0  0  0  0  0  0  0  0  0  0
    2.8682   -1.1267   -2.0606 H   0  0  0  0  0  0  0  0  0  0  0  0
    3.9219   -1.0524   -0.5404 H   0  0  0  0  0  0  0  0  0  0  0  0
  1 25  1  0  0  0  0
  2  1  2  0  0  0  0
  2  7  1  0  0  0  0
  3 21  1  6  0  0  0
  3  2  1  0  0  0  0
  4  5  1  0  0  0  0
  4 26  1  0  0  0  0
  4  3  1  0  0  0  0
  5  6  1  0  0  0  0
  6 24  2  0  0  0  0
  6  1  1  0  0  0  0
  7 30  1  0  0  0  0
  8  7  1  0  0  0  0
  8 32  1  0  0  0  0
  9 20  1  1  0  0  0
  9  8  1  0  0  0  0
 10 22  1  6  0  0  0
 10  3  1  0  0  0  0
 10  9  1  0  0  0  0
 11 23  1  6  0  0  0
 11  9  1  0  0  0  0
 11 17  1  0  0  0  0
 12 15  1  0  0  0  0
 12 19  1  1  0  0  0
 12 11  1  0  0  0  0
 13 14  1  0  0  0  0
 13 12  1  0  0  0  0
 14 36  1  0  0  0  0
 14 10  1  0  0  0  0
 15 38  1  6  0  0  0
 15 16  1  0  0  0  0
 16 40  1  0  0  0  0
 16 39  1  0  0  0  0
 16 17  1  0  0  0  0
 17 41  1  0  0  0  0
 17 42  1  0  0  0  0
 18 15  1  0  0  0  0
 19 45  1  0  0  0  0
 19 44  1  0  0  0  0
 21 47  1  0  0  0  0
 21 49  1  0  0  0  0
 27  4  1  0  0  0  0
 28  5  1  0  0  0  0
 29  5  1  0  0  0  0
 31  7  1  0  0  0  0
 33  8  1  0  0  0  0
 34 13  1  0  0  0  0
 35 13  1  0  0  0  0
 37 14  1  0  0  0  0
 43 18  1  0  0  0  0
 46 19  1  0  0  0  0
 48 21  1  0  0  0  0
M  END
$$$$
