
 OpenBabel09302112093D

 49 52  0  0  1  0  0  0  0  0999 V2000
    3.6530    1.3345   -0.1912 C   0  0  0  0  0  0  0  0  0  0  0  0
    2.5280    0.8464   -0.6524 C   0  0  0  0  0  0  0  0  0  0  0  0
    1.9815   -0.4246   -0.2165 C   0  0  1  0  0  0  0  0  0  0  0  0
    2.6880   -1.1398    0.8756 C   0  0  0  0  0  0  0  0  0  0  0  0
    3.6690   -0.3361    1.6679 C   0  0  0  0  0  0  0  0  0  0  0  0
    4.4435    0.6094    0.8174 C   0  0  0  0  0  0  0  0  0  0  0  0
    1.8003    1.6408   -1.6616 C   0  0  0  0  0  0  0  0  0  0  0  0
    0.3183    1.4361   -1.6379 C   0  0  0  0  0  0  0  0  0  0  0  0
   -0.2138    0.8195   -0.4015 C   0  0  1  0  0  0  0  0  0  0  0  0
    0.5207   -0.3384    0.1516 C   0  0  2  0  0  0  0  0  0  0  0  0
   -1.6274    0.3599   -0.6795 C   0  0  1  0  0  0  0  0  0  0  0  0
   -2.2077   -0.4552    0.4522 C   0  0  2  0  0  0  0  0  0  0  0  0
   -1.5151   -1.7761    0.4770 C   0  0  0  0  0  0  0  0  0  0  0  0
   -0.1333   -1.6823   -0.1671 C   0  0  0  0  0  0  0  0  0  0  0  0
   -3.6646   -0.5541    0.0126 C   0  0  1  0  0  0  0  0  0  0  0  0
   -3.9269    0.6793   -0.8276 C   0  0  0  0  0  0  0  0  0  0  0  0
   -2.6117    1.4620   -0.8286 C   0  0  0  0  0  0  0  0  0  0  0  0
   -4.5307   -0.4951    1.1042 O   0  0  0  0  0  0  0  0  0  0  0  0
   -2.1370    0.2178    1.7796 C   0  0  0  0  0  0  0  0  0  0  0  0
   -0.3119    1.6409    0.3679 H   0  0  0  0  0  0  0  0  0  0  0  0
    2.0316   -1.3537   -1.4439 C   0  0  0  0  0  0  0  0  0  0  0  0
    0.4708   -0.2652    1.2787 H   0  0  0  0  0  0  0  0  0  0  0  0
   -1.6274   -0.2610   -1.5778 H   0  0  0  0  0  0  0  0  0  0  0  0
    5.6837    0.7866    0.9398 O   0  0  0  0  0  0  0  0  0  0  0  0
    4.0619    2.2983   -0.5284 H   0  0  0  0  0  0  0  0  0  0  0  0
    1.9673   -1.5842    1.6253 H   0  0  0  0  0  0  0  0  0  0  0  0
    3.2561   -2.0456    0.5092 H   0  0  0  0  0  0  0  0  0  0  0  0
    4.4000   -1.0133    2.1566 H   0  0  0  0  0  0  0  0  0  0  0  0
    3.1851    0.2465    2.4799 H   0  0  0  0  0  0  0  0  0  0  0  0
    2.1119    2.6845   -1.6133 H   0  0  0  0  0  0  0  0  0  0  0  0
    2.1564    1.2621   -2.6650 H   0  0  0  0  0  0  0  0  0  0  0  0
   -0.1410    2.4680   -1.7209 H   0  0  0  0  0  0  0  0  0  0  0  0
   -0.0773    0.8988   -2.5308 H   0  0  0  0  0  0  0  0  0  0  0  0
   -1.3966   -2.1561    1.5265 H   0  0  0  0  0  0  0  0  0  0  0  0
   -2.0685   -2.5856   -0.0557 H   0  0  0  0  0  0  0  0  0  0  0  0
   -0.1932   -1.8611   -1.2571 H   0  0  0  0  0  0  0  0  0  0  0  0
    0.4998   -2.4526    0.3473 H   0  0  0  0  0  0  0  0  0  0  0  0
   -3.8291   -1.4934   -0.5374 H   0  0  0  0  0  0  0  0  0  0  0  0
   -4.0626    0.3557   -1.8996 H   0  0  0  0  0  0  0  0  0  0  0  0
   -4.7656    1.2804   -0.4732 H   0  0  0  0  0  0  0  0  0  0  0  0
   -2.4943    2.0643   -1.7475 H   0  0  0  0  0  0  0  0  0  0  0  0
   -2.6216    2.0630    0.0983 H   0  0  0  0  0  0  0  0  0  0  0  0
   -5.1282    0.2797    1.0831 H   0  0  0  0  0  0  0  0  0  0  0  0
   -1.7206    1.2235    1.7814 H   0  0  0  0  0  0  0  0  0  0  0  0
   -3.1729    0.2972    2.2230 H   0  0  0  0  0  0  0  0  0  0  0  0
   -1.5619   -0.3763    2.5486 H   0  0  0  0  0  0  0  0  0  0  0  0
    1.3721   -0.9842   -2.2263 H   0  0  0  0  0  0  0  0  0  0  0  0
    3.0826   -1.2229   -1.8351 H   0  0  0  0  0  0  0  0  0  0  0  0
    1.8592   -2.3987   -1.1710 H   0  0  0  0  0  0  0  0  0  0  0  0
  1  6  1  0  0  0  0
  2  3  1  0  0  0  0
  2  1  2  0  0  0  0
  3 21  1  6  0  0  0
  3 10  1  0  0  0  0
  3  4  1  0  0  0  0
  4 26  1  0  0  0  0
  4  5  1  0  0  0  0
  5 28  1  0  0  0  0
  5 29  1  0  0  0  0
  6 24  2  0  0  0  0
  6  5  1  0  0  0  0
  7  8  1  0  0  0  0
  7 30  1  0  0  0  0
  7  2  1  0  0  0  0
  8  9  1  0  0  0  0
  9 10  1  0  0  0  0
  9 20  1  1  0  0  0
 10 22  1  1  0  0  0
 11 23  1  6  0  0  0
 11  9  1  0  0  0  0
 11 12  1  0  0  0  0
 12 13  1  0  0  0  0
 12 19  1  1  0  0  0
 13 34  1  0  0  0  0
 14 10  1  0  0  0  0
 14 37  1  0  0  0  0
 14 13  1  0  0  0  0
 15 38  1  6  0  0  0
 15 12  1  0  0  0  0
 15 18  1  0  0  0  0
 16 40  1  0  0  0  0
 16 15  1  0  0  0  0
 17 16  1  0  0  0  0
 17 11  1  0  0  0  0
 17 42  1  0  0  0  0
 19 44  1  0  0  0  0
 19 45  1  0  0  0  0
 19 46  1  0  0  0  0
 21 49  1  0  0  0  0
 25  1  1  0  0  0  0
 27  4  1  0  0  0  0
 31  7  1  0  0  0  0
 32  8  1  0  0  0  0
 33  8  1  0  0  0  0
 35 13  1  0  0  0  0
 36 14  1  0  0  0  0
 39 16  1  0  0  0  0
 41 17  1  0  0  0  0
 43 18  1  0  0  0  0
 47 21  1  0  0  0  0
 48 21  1  0  0  0  0
M  END
$$$$
