
 OpenBabel09302112093D

 49 52  0  0  1  0  0  0  0  0999 V2000
   -3.7510    0.8399    0.8242 C   0  0  0  0  0  0  0  0  0  0  0  0
   -2.4636    0.8558    0.4427 C   0  0  0  0  0  0  0  0  0  0  0  0
   -1.8583   -0.3252   -0.2265 C   0  0  2  0  0  0  0  0  0  0  0  0
   -2.5690   -1.5882    0.1885 C   0  0  0  0  0  0  0  0  0  0  0  0
   -4.0540   -1.5192   -0.0042 C   0  0  0  0  0  0  0  0  0  0  0  0
   -4.6277   -0.2872    0.6248 C   0  0  0  0  0  0  0  0  0  0  0  0
   -1.7164    2.1056    0.7316 C   0  0  0  0  0  0  0  0  0  0  0  0
   -0.2668    1.8496    1.0881 C   0  0  0  0  0  0  0  0  0  0  0  0
    0.2516    0.8676    0.0305 C   0  0  1  0  0  0  0  0  0  0  0  0
   -0.4305   -0.4387    0.2905 C   0  0  1  0  0  0  0  0  0  0  0  0
    1.7038    0.8212   -0.0913 C   0  0  2  0  0  0  0  0  0  0  0  0
    2.3146   -0.5191    0.3451 C   0  0  1  0  0  0  0  0  0  0  0  0
    1.6837   -1.5551   -0.5082 C   0  0  0  0  0  0  0  0  0  0  0  0
    0.2308   -1.6397   -0.2333 C   0  0  0  0  0  0  0  0  0  0  0  0
    3.7525   -0.2054   -0.0152 C   0  0  1  0  0  0  0  0  0  0  0  0
    3.9171    1.1772    0.5816 C   0  0  0  0  0  0  0  0  0  0  0  0
    2.5124    1.7600    0.7141 C   0  0  0  0  0  0  0  0  0  0  0  0
    3.8694   -0.1583   -1.4070 O   0  0  0  0  0  0  0  0  0  0  0  0
    2.2347   -0.7534    1.8021 C   0  0  0  0  0  0  0  0  0  0  0  0
   -0.1779    1.2623   -0.9392 H   0  0  0  0  0  0  0  0  0  0  0  0
   -1.8859   -0.1679   -1.7297 C   0  0  0  0  0  0  0  0  0  0  0  0
   -0.5352   -0.5338    1.4103 H   0  0  0  0  0  0  0  0  0  0  0  0
    2.0378    0.9298   -1.1666 H   0  0  0  0  0  0  0  0  0  0  0  0
   -5.8223   -0.2573    0.9567 O   0  0  0  0  0  0  0  0  0  0  0  0
   -4.1834    1.7170    1.3154 H   0  0  0  0  0  0  0  0  0  0  0  0
   -2.3754   -1.7483    1.2711 H   0  0  0  0  0  0  0  0  0  0  0  0
   -2.1808   -2.4399   -0.3757 H   0  0  0  0  0  0  0  0  0  0  0  0
   -4.4997   -2.3813    0.5478 H   0  0  0  0  0  0  0  0  0  0  0  0
   -4.3580   -1.5560   -1.0630 H   0  0  0  0  0  0  0  0  0  0  0  0
   -1.7018    2.6848   -0.2241 H   0  0  0  0  0  0  0  0  0  0  0  0
   -2.1771    2.6703    1.5391 H   0  0  0  0  0  0  0  0  0  0  0  0
    0.2737    2.8049    1.0441 H   0  0  0  0  0  0  0  0  0  0  0  0
   -0.2535    1.3648    2.0638 H   0  0  0  0  0  0  0  0  0  0  0  0
    2.1428   -2.5597   -0.4219 H   0  0  0  0  0  0  0  0  0  0  0  0
    1.8195   -1.2536   -1.5752 H   0  0  0  0  0  0  0  0  0  0  0  0
   -0.2726   -1.9977   -1.1796 H   0  0  0  0  0  0  0  0  0  0  0  0
    0.0720   -2.4981    0.4848 H   0  0  0  0  0  0  0  0  0  0  0  0
    4.4014   -0.9497    0.4452 H   0  0  0  0  0  0  0  0  0  0  0  0
    4.4615    1.1616    1.5277 H   0  0  0  0  0  0  0  0  0  0  0  0
    4.4370    1.8040   -0.1981 H   0  0  0  0  0  0  0  0  0  0  0  0
    2.2729    1.8083    1.7743 H   0  0  0  0  0  0  0  0  0  0  0  0
    2.4916    2.8126    0.3326 H   0  0  0  0  0  0  0  0  0  0  0  0
    4.3037   -0.9877   -1.7344 H   0  0  0  0  0  0  0  0  0  0  0  0
    1.7895   -1.7682    2.0222 H   0  0  0  0  0  0  0  0  0  0  0  0
    1.6638   -0.0375    2.3894 H   0  0  0  0  0  0  0  0  0  0  0  0
    3.2570   -0.8084    2.2770 H   0  0  0  0  0  0  0  0  0  0  0  0
   -0.9264   -0.3653   -2.2136 H   0  0  0  0  0  0  0  0  0  0  0  0
   -2.6347   -0.8766   -2.1404 H   0  0  0  0  0  0  0  0  0  0  0  0
   -2.1729    0.8790   -2.0201 H   0  0  0  0  0  0  0  0  0  0  0  0
  1 25  1  0  0  0  0
  2  7  1  0  0  0  0
  2  1  2  0  0  0  0
  3 21  1  6  0  0  0
  3  4  1  0  0  0  0
  3 10  1  0  0  0  0
  3  2  1  0  0  0  0
  4 26  1  0  0  0  0
  5  4  1  0  0  0  0
  5 28  1  0  0  0  0
  5  6  1  0  0  0  0
  6  1  1  0  0  0  0
  6 24  2  0  0  0  0
  7  8  1  0  0  0  0
  7 31  1  0  0  0  0
  8 33  1  0  0  0  0
  9 20  1  6  0  0  0
  9 10  1  0  0  0  0
  9  8  1  0  0  0  0
 10 22  1  1  0  0  0
 11 23  1  6  0  0  0
 11  9  1  0  0  0  0
 11 12  1  0  0  0  0
 11 17  1  0  0  0  0
 12 19  1  1  0  0  0
 13 34  1  0  0  0  0
 13 14  1  0  0  0  0
 13 12  1  0  0  0  0
 14 10  1  0  0  0  0
 14 37  1  0  0  0  0
 15 12  1  0  0  0  0
 15 38  1  1  0  0  0
 15 16  1  0  0  0  0
 16 17  1  0  0  0  0
 16 39  1  0  0  0  0
 17 41  1  0  0  0  0
 18 15  1  0  0  0  0
 19 44  1  0  0  0  0
 19 46  1  0  0  0  0
 19 45  1  0  0  0  0
 27  4  1  0  0  0  0
 29  5  1  0  0  0  0
 30  7  1  0  0  0  0
 32  8  1  0  0  0  0
 35 13  1  0  0  0  0
 36 14  1  0  0  0  0
 40 16  1  0  0  0  0
 42 17  1  0  0  0  0
 43 18  1  0  0  0  0
 47 21  1  0  0  0  0
 48 21  1  0  0  0  0
 49 21  1  0  0  0  0
M  END
$$$$
