
 OpenBabel09302112093D

 49 52  0  0  1  0  0  0  0  0999 V2000
    3.6940    1.2435    0.2743 C   0  0  0  0  0  0  0  0  0  0  0  0
    2.4189    1.1067   -0.0716 C   0  0  0  0  0  0  0  0  0  0  0  0
    1.9043   -0.2388   -0.3204 C   0  0  1  0  0  0  0  0  0  0  0  0
    2.5566   -1.1930    0.6892 C   0  0  0  0  0  0  0  0  0  0  0  0
    4.0586   -1.2452    0.4290 C   0  0  0  0  0  0  0  0  0  0  0  0
    4.6118    0.1328    0.4210 C   0  0  0  0  0  0  0  0  0  0  0  0
    1.6209    2.3561   -0.1752 C   0  0  0  0  0  0  0  0  0  0  0  0
    0.2747    2.0189   -0.7525 C   0  0  0  0  0  0  0  0  0  0  0  0
   -0.2980    0.8907    0.1167 C   0  0  1  0  0  0  0  0  0  0  0  0
    0.4216   -0.3653   -0.2930 C   0  0  1  0  0  0  0  0  0  0  0  0
   -1.7599    0.7813   -0.2560 C   0  0  1  0  0  0  0  0  0  0  0  0
   -2.3513   -0.5480    0.0753 C   0  0  1  0  0  0  0  0  0  0  0  0
   -1.4936   -1.2948    1.0424 C   0  0  0  0  0  0  0  0  0  0  0  0
   -0.0775   -1.4838    0.5959 C   0  0  0  0  0  0  0  0  0  0  0  0
   -3.6896   -0.2802    0.7602 C   0  0  2  0  0  0  0  0  0  0  0  0
   -3.9353    1.2066    0.5069 C   0  0  0  0  0  0  0  0  0  0  0  0
   -2.5067    1.7399    0.6806 C   0  0  0  0  0  0  0  0  0  0  0  0
   -4.7127   -1.0331    0.2333 O   0  0  0  0  0  0  0  0  0  0  0  0
   -2.6395   -1.4038   -1.1312 C   0  0  0  0  0  0  0  0  0  0  0  0
   -0.1577    1.0910    1.1788 H   0  0  0  0  0  0  0  0  0  0  0  0
    2.4361   -0.6897   -1.6876 C   0  0  0  0  0  0  0  0  0  0  0  0
    0.0444   -0.6147   -1.3283 H   0  0  0  0  0  0  0  0  0  0  0  0
   -1.9338    1.0478   -1.3044 H   0  0  0  0  0  0  0  0  0  0  0  0
    5.8573    0.2777    0.5423 O   0  0  0  0  0  0  0  0  0  0  0  0
    4.1068    2.2461    0.4673 H   0  0  0  0  0  0  0  0  0  0  0  0
    2.4355   -0.8404    1.7228 H   0  0  0  0  0  0  0  0  0  0  0  0
    2.1952   -2.2400    0.5337 H   0  0  0  0  0  0  0  0  0  0  0  0
    4.3081   -1.7982   -0.4880 H   0  0  0  0  0  0  0  0  0  0  0  0
    4.4952   -1.7398    1.3433 H   0  0  0  0  0  0  0  0  0  0  0  0
    2.1329    3.0752   -0.8415 H   0  0  0  0  0  0  0  0  0  0  0  0
    1.4625    2.7880    0.8351 H   0  0  0  0  0  0  0  0  0  0  0  0
   -0.4100    2.8699   -0.7192 H   0  0  0  0  0  0  0  0  0  0  0  0
    0.3527    1.6183   -1.7795 H   0  0  0  0  0  0  0  0  0  0  0  0
   -1.9448   -2.3116    1.1747 H   0  0  0  0  0  0  0  0  0  0  0  0
   -1.5341   -0.8004    2.0474 H   0  0  0  0  0  0  0  0  0  0  0  0
    0.0095   -2.4338    0.0289 H   0  0  0  0  0  0  0  0  0  0  0  0
    0.5439   -1.5791    1.5320 H   0  0  0  0  0  0  0  0  0  0  0  0
   -3.6268   -0.3950    1.8534 H   0  0  0  0  0  0  0  0  0  0  0  0
   -4.6295    1.6438    1.2218 H   0  0  0  0  0  0  0  0  0  0  0  0
   -4.1968    1.3847   -0.5589 H   0  0  0  0  0  0  0  0  0  0  0  0
   -2.1901    1.5185    1.7148 H   0  0  0  0  0  0  0  0  0  0  0  0
   -2.4099    2.7788    0.3760 H   0  0  0  0  0  0  0  0  0  0  0  0
   -4.8375   -1.8598    0.7764 H   0  0  0  0  0  0  0  0  0  0  0  0
   -1.8089   -2.1394   -1.3362 H   0  0  0  0  0  0  0  0  0  0  0  0
   -3.5160   -2.0624   -0.8683 H   0  0  0  0  0  0  0  0  0  0  0  0
   -2.8737   -0.8077   -2.0151 H   0  0  0  0  0  0  0  0  0  0  0  0
    3.4890   -0.4229   -1.8077 H   0  0  0  0  0  0  0  0  0  0  0  0
    1.8276   -0.2087   -2.4723 H   0  0  0  0  0  0  0  0  0  0  0  0
    2.2757   -1.7869   -1.7846 H   0  0  0  0  0  0  0  0  0  0  0  0
  1  6  1  0  0  0  0
  1 25  1  0  0  0  0
  2  1  2  0  0  0  0
  3 21  1  6  0  0  0
  3 10  1  0  0  0  0
  3  2  1  0  0  0  0
  3  4  1  0  0  0  0
  4 26  1  0  0  0  0
  5  4  1  0  0  0  0
  5 29  1  0  0  0  0
  6  5  1  0  0  0  0
  6 24  2  0  0  0  0
  7  2  1  0  0  0  0
  7 31  1  0  0  0  0
  8 32  1  0  0  0  0
  8  7  1  0  0  0  0
  8  9  1  0  0  0  0
  9 20  1  1  0  0  0
 10 22  1  6  0  0  0
 10  9  1  0  0  0  0
 10 14  1  0  0  0  0
 11 23  1  6  0  0  0
 11 12  1  0  0  0  0
 11  9  1  0  0  0  0
 11 17  1  0  0  0  0
 12 19  1  6  0  0  0
 12 15  1  0  0  0  0
 12 13  1  0  0  0  0
 13 34  1  0  0  0  0
 13 35  1  0  0  0  0
 14 13  1  0  0  0  0
 14 37  1  0  0  0  0
 15 38  1  1  0  0  0
 16 17  1  0  0  0  0
 16 15  1  0  0  0  0
 16 39  1  0  0  0  0
 17 41  1  0  0  0  0
 18 15  1  0  0  0  0
 18 43  1  0  0  0  0
 19 45  1  0  0  0  0
 27  4  1  0  0  0  0
 28  5  1  0  0  0  0
 30  7  1  0  0  0  0
 33  8  1  0  0  0  0
 36 14  1  0  0  0  0
 40 16  1  0  0  0  0
 42 17  1  0  0  0  0
 44 19  1  0  0  0  0
 46 19  1  0  0  0  0
 47 21  1  0  0  0  0
 48 21  1  0  0  0  0
 49 21  1  0  0  0  0
M  END
$$$$
