
 OpenBabel09302112093D

 49 52  0  0  1  0  0  0  0  0999 V2000
    3.6908    1.2345   -0.1503 C   0  0  0  0  0  0  0  0  0  0  0  0
    2.3896    1.0402   -0.0530 C   0  0  0  0  0  0  0  0  0  0  0  0
    1.9031   -0.2995    0.2665 C   0  0  2  0  0  0  0  0  0  0  0  0
    2.7966   -1.2931   -0.4714 C   0  0  0  0  0  0  0  0  0  0  0  0
    4.2058   -1.2451    0.0204 C   0  0  0  0  0  0  0  0  0  0  0  0
    4.6672    0.1567    0.0504 C   0  0  0  0  0  0  0  0  0  0  0  0
    1.5097    2.2202   -0.2805 C   0  0  0  0  0  0  0  0  0  0  0  0
    0.3080    1.6667   -1.0594 C   0  0  0  0  0  0  0  0  0  0  0  0
   -0.3609    0.7319   -0.0409 C   0  0  1  0  0  0  0  0  0  0  0  0
    0.4597   -0.5390   -0.0636 C   0  0  1  0  0  0  0  0  0  0  0  0
   -1.7441    0.4756   -0.5583 C   0  0  1  0  0  0  0  0  0  0  0  0
   -2.4280   -0.6335    0.1573 C   0  0  1  0  0  0  0  0  0  0  0  0
   -1.5852   -1.3264    1.1793 C   0  0  0  0  0  0  0  0  0  0  0  0
   -0.1835   -1.5859    0.7841 C   0  0  0  0  0  0  0  0  0  0  0  0
   -3.6107   -0.0208    0.8812 C   0  0  2  0  0  0  0  0  0  0  0  0
   -3.1355    1.3992    1.0894 C   0  0  0  0  0  0  0  0  0  0  0  0
   -2.5741    1.7314   -0.2818 C   0  0  0  0  0  0  0  0  0  0  0  0
   -4.7166    0.0428    0.0199 O   0  0  0  0  0  0  0  0  0  0  0  0
   -3.0015   -1.6426   -0.8325 C   0  0  0  0  0  0  0  0  0  0  0  0
   -0.3847    1.1806    0.9515 H   0  0  0  0  0  0  0  0  0  0  0  0
    2.1812   -0.5368    1.7570 C   0  0  0  0  0  0  0  0  0  0  0  0
    0.4273   -0.9021   -1.1227 H   0  0  0  0  0  0  0  0  0  0  0  0
   -1.7419    0.3025   -1.6633 H   0  0  0  0  0  0  0  0  0  0  0  0
    5.8798    0.3789    0.2466 O   0  0  0  0  0  0  0  0  0  0  0  0
    4.0923    2.2124   -0.3857 H   0  0  0  0  0  0  0  0  0  0  0  0
    2.3797   -2.3224   -0.4217 H   0  0  0  0  0  0  0  0  0  0  0  0
    2.8046   -1.0210   -1.5509 H   0  0  0  0  0  0  0  0  0  0  0  0
    4.8387   -1.7923   -0.7114 H   0  0  0  0  0  0  0  0  0  0  0  0
    4.3495   -1.7623    0.9917 H   0  0  0  0  0  0  0  0  0  0  0  0
    1.1262    2.5893    0.6981 H   0  0  0  0  0  0  0  0  0  0  0  0
    1.9952    3.0223   -0.8271 H   0  0  0  0  0  0  0  0  0  0  0  0
    0.7042    1.0544   -1.8973 H   0  0  0  0  0  0  0  0  0  0  0  0
   -0.3567    2.4457   -1.4148 H   0  0  0  0  0  0  0  0  0  0  0  0
   -2.0809   -2.2976    1.4175 H   0  0  0  0  0  0  0  0  0  0  0  0
   -1.6318   -0.7328    2.1331 H   0  0  0  0  0  0  0  0  0  0  0  0
    0.3963   -1.7713    1.7371 H   0  0  0  0  0  0  0  0  0  0  0  0
   -0.1375   -2.5862    0.2598 H   0  0  0  0  0  0  0  0  0  0  0  0
   -3.8633   -0.5319    1.8115 H   0  0  0  0  0  0  0  0  0  0  0  0
   -2.3487    1.4618    1.8549 H   0  0  0  0  0  0  0  0  0  0  0  0
   -3.9546    2.0870    1.3667 H   0  0  0  0  0  0  0  0  0  0  0  0
   -1.9632    2.6258   -0.1718 H   0  0  0  0  0  0  0  0  0  0  0  0
   -3.3837    1.8181   -1.0076 H   0  0  0  0  0  0  0  0  0  0  0  0
   -5.4851    0.3568    0.5415 H   0  0  0  0  0  0  0  0  0  0  0  0
   -4.0570   -1.8801   -0.6200 H   0  0  0  0  0  0  0  0  0  0  0  0
   -2.4229   -2.5803   -0.7201 H   0  0  0  0  0  0  0  0  0  0  0  0
   -2.8831   -1.2725   -1.8664 H   0  0  0  0  0  0  0  0  0  0  0  0
    2.4152   -1.5885    1.9664 H   0  0  0  0  0  0  0  0  0  0  0  0
    3.1210    0.0364    2.0087 H   0  0  0  0  0  0  0  0  0  0  0  0
    1.3932   -0.1068    2.3929 H   0  0  0  0  0  0  0  0  0  0  0  0
  1  2  2  0  0  0  0
  1  6  1  0  0  0  0
  2  3  1  0  0  0  0
  3 21  1  1  0  0  0
  4 26  1  0  0  0  0
  4  5  1  0  0  0  0
  4  3  1  0  0  0  0
  5  6  1  0  0  0  0
  5 29  1  0  0  0  0
  6 24  2  0  0  0  0
  7  2  1  0  0  0  0
  7 30  1  0  0  0  0
  8  7  1  0  0  0  0
  8  9  1  0  0  0  0
  9 20  1  1  0  0  0
 10 22  1  6  0  0  0
 10  9  1  0  0  0  0
 10  3  1  0  0  0  0
 10 14  1  0  0  0  0
 11 23  1  6  0  0  0
 11 17  1  0  0  0  0
 11  9  1  0  0  0  0
 11 12  1  0  0  0  0
 12 19  1  6  0  0  0
 12 15  1  0  0  0  0
 12 13  1  0  0  0  0
 13 34  1  0  0  0  0
 13 35  1  0  0  0  0
 14 13  1  0  0  0  0
 14 36  1  0  0  0  0
 15 16  1  0  0  0  0
 15 38  1  1  0  0  0
 16 40  1  0  0  0  0
 16 39  1  0  0  0  0
 17 41  1  0  0  0  0
 17 16  1  0  0  0  0
 18 43  1  0  0  0  0
 18 15  1  0  0  0  0
 19 45  1  0  0  0  0
 19 44  1  0  0  0  0
 21 47  1  0  0  0  0
 21 48  1  0  0  0  0
 21 49  1  0  0  0  0
 25  1  1  0  0  0  0
 27  4  1  0  0  0  0
 28  5  1  0  0  0  0
 31  7  1  0  0  0  0
 32  8  1  0  0  0  0
 33  8  1  0  0  0  0
 37 14  1  0  0  0  0
 42 17  1  0  0  0  0
 46 19  1  0  0  0  0
M  END
$$$$
