
 OpenBabel09302112093D

 49 52  0  0  1  0  0  0  0  0999 V2000
    3.6099    1.4326    0.1775 C   0  0  0  0  0  0  0  0  0  0  0  0
    2.3180    1.1122    0.0083 C   0  0  0  0  0  0  0  0  0  0  0  0
    1.9856   -0.3154   -0.0334 C   0  0  1  0  0  0  0  0  0  0  0  0
    2.8043   -1.0045    1.0616 C   0  0  0  0  0  0  0  0  0  0  0  0
    4.2619   -1.0113    0.6547 C   0  0  0  0  0  0  0  0  0  0  0  0
    4.6166    0.3894    0.3115 C   0  0  0  0  0  0  0  0  0  0  0  0
    1.3763    2.2288   -0.1172 C   0  0  0  0  0  0  0  0  0  0  0  0
   -0.0578    1.7106   -0.2676 C   0  0  0  0  0  0  0  0  0  0  0  0
   -0.2377    0.5954    0.6804 C   0  0  1  0  0  0  0  0  0  0  0  0
    0.5589   -0.6306    0.2055 C   0  0  2  0  0  0  0  0  0  0  0  0
   -1.6011    0.1265    0.9340 C   0  0  2  0  0  0  0  0  0  0  0  0
   -2.3072   -0.4841   -0.2494 C   0  0  1  0  0  0  0  0  0  0  0  0
   -1.5223   -1.6940   -0.6622 C   0  0  0  0  0  0  0  0  0  0  0  0
   -0.1226   -1.2325   -1.0117 C   0  0  0  0  0  0  0  0  0  0  0  0
   -3.6340   -0.8639    0.4282 C   0  0  2  0  0  0  0  0  0  0  0  0
   -3.8566    0.2251    1.4682 C   0  0  0  0  0  0  0  0  0  0  0  0
   -2.5914    1.0894    1.4537 C   0  0  0  0  0  0  0  0  0  0  0  0
   -4.6724   -0.9000   -0.4928 O   0  0  0  0  0  0  0  0  0  0  0  0
   -2.6266    0.4586   -1.3436 C   0  0  0  0  0  0  0  0  0  0  0  0
    0.2313    0.8743    1.6519 H   0  0  0  0  0  0  0  0  0  0  0  0
    2.4592   -0.9217   -1.3486 C   0  0  0  0  0  0  0  0  0  0  0  0
    0.4196   -1.3833    1.0246 H   0  0  0  0  0  0  0  0  0  0  0  0
   -1.5280   -0.7120    1.6941 H   0  0  0  0  0  0  0  0  0  0  0  0
    5.8280    0.6612    0.1357 O   0  0  0  0  0  0  0  0  0  0  0  0
    3.9262    2.4677    0.2172 H   0  0  0  0  0  0  0  0  0  0  0  0
    2.4459   -2.0254    1.2621 H   0  0  0  0  0  0  0  0  0  0  0  0
    2.7141   -0.3677    1.9738 H   0  0  0  0  0  0  0  0  0  0  0  0
    4.3699   -1.7059   -0.2024 H   0  0  0  0  0  0  0  0  0  0  0  0
    4.8703   -1.3769    1.5072 H   0  0  0  0  0  0  0  0  0  0  0  0
    1.4542    2.9734    0.6990 H   0  0  0  0  0  0  0  0  0  0  0  0
    1.6572    2.7868   -1.0578 H   0  0  0  0  0  0  0  0  0  0  0  0
   -0.7072    2.5598    0.0238 H   0  0  0  0  0  0  0  0  0  0  0  0
   -0.1654    1.4588   -1.3378 H   0  0  0  0  0  0  0  0  0  0  0  0
   -1.5129   -2.4062    0.1829 H   0  0  0  0  0  0  0  0  0  0  0  0
   -1.9409   -2.1519   -1.5884 H   0  0  0  0  0  0  0  0  0  0  0  0
   -0.2128   -0.5186   -1.8327 H   0  0  0  0  0  0  0  0  0  0  0  0
    0.4490   -2.1473   -1.2775 H   0  0  0  0  0  0  0  0  0  0  0  0
   -3.4570   -1.8535    0.8863 H   0  0  0  0  0  0  0  0  0  0  0  0
   -4.7563    0.8267    1.2652 H   0  0  0  0  0  0  0  0  0  0  0  0
   -3.9117   -0.2896    2.4485 H   0  0  0  0  0  0  0  0  0  0  0  0
   -2.3515    1.3347    2.5288 H   0  0  0  0  0  0  0  0  0  0  0  0
   -2.7457    1.9907    0.8665 H   0  0  0  0  0  0  0  0  0  0  0  0
   -5.2952   -0.1363   -0.3922 H   0  0  0  0  0  0  0  0  0  0  0  0
   -2.0293    0.2848   -2.2877 H   0  0  0  0  0  0  0  0  0  0  0  0
   -2.5517    1.5232   -1.1079 H   0  0  0  0  0  0  0  0  0  0  0  0
   -3.6923    0.3016   -1.6882 H   0  0  0  0  0  0  0  0  0  0  0  0
    1.7861   -0.6702   -2.1926 H   0  0  0  0  0  0  0  0  0  0  0  0
    2.4821   -2.0335   -1.1625 H   0  0  0  0  0  0  0  0  0  0  0  0
    3.4630   -0.5759   -1.6378 H   0  0  0  0  0  0  0  0  0  0  0  0
  1 25  1  0  0  0  0
  1  6  1  0  0  0  0
  2  1  2  0  0  0  0
  3 21  1  6  0  0  0
  3  2  1  0  0  0  0
  3 10  1  0  0  0  0
  3  4  1  0  0  0  0
  4 26  1  0  0  0  0
  4 27  1  0  0  0  0
  5  4  1  0  0  0  0
  5 29  1  0  0  0  0
  6  5  1  0  0  0  0
  7  2  1  0  0  0  0
  7 30  1  0  0  0  0
  8  7  1  0  0  0  0
  8 32  1  0  0  0  0
  8  9  1  0  0  0  0
  9 11  1  0  0  0  0
  9 20  1  1  0  0  0
 10  9  1  0  0  0  0
 10 22  1  1  0  0  0
 11 17  1  0  0  0  0
 11 23  1  1  0  0  0
 12 19  1  6  0  0  0
 12 15  1  0  0  0  0
 12 11  1  0  0  0  0
 13 12  1  0  0  0  0
 13 34  1  0  0  0  0
 14 13  1  0  0  0  0
 14 10  1  0  0  0  0
 15 38  1  1  0  0  0
 15 16  1  0  0  0  0
 16 40  1  0  0  0  0
 17 16  1  0  0  0  0
 17 41  1  0  0  0  0
 18 43  1  0  0  0  0
 18 15  1  0  0  0  0
 19 45  1  0  0  0  0
 21 48  1  0  0  0  0
 24  6  2  0  0  0  0
 28  5  1  0  0  0  0
 31  7  1  0  0  0  0
 33  8  1  0  0  0  0
 35 13  1  0  0  0  0
 36 14  1  0  0  0  0
 37 14  1  0  0  0  0
 39 16  1  0  0  0  0
 42 17  1  0  0  0  0
 44 19  1  0  0  0  0
 46 19  1  0  0  0  0
 47 21  1  0  0  0  0
 49 21  1  0  0  0  0
M  END
$$$$
