
 OpenBabel09302112093D

 49 52  0  0  1  0  0  0  0  0999 V2000
   -3.6427    1.1573    0.7647 C   0  0  0  0  0  0  0  0  0  0  0  0
   -2.3939    1.0028    0.3698 C   0  0  0  0  0  0  0  0  0  0  0  0
   -1.9308   -0.3267   -0.0662 C   0  0  2  0  0  0  0  0  0  0  0  0
   -2.4795   -1.3403    0.9462 C   0  0  0  0  0  0  0  0  0  0  0  0
   -3.9857   -1.3240    0.9821 C   0  0  0  0  0  0  0  0  0  0  0  0
   -4.5459    0.0200    0.7672 C   0  0  0  0  0  0  0  0  0  0  0  0
   -1.5081    2.2045    0.3875 C   0  0  0  0  0  0  0  0  0  0  0  0
   -0.2374    1.7262    1.1007 C   0  0  0  0  0  0  0  0  0  0  0  0
    0.3685    0.7195    0.1801 C   0  0  1  0  0  0  0  0  0  0  0  0
   -0.4533   -0.4861   -0.1110 C   0  0  1  0  0  0  0  0  0  0  0  0
    1.7317    0.2501    0.6357 C   0  0  1  0  0  0  0  0  0  0  0  0
    2.3087   -0.6244   -0.4155 C   0  0  1  0  0  0  0  0  0  0  0  0
    1.5186   -0.7752   -1.6496 C   0  0  0  0  0  0  0  0  0  0  0  0
    0.0449   -0.9937   -1.4734 C   0  0  0  0  0  0  0  0  0  0  0  0
    3.6263    0.0746   -0.7863 C   0  0  1  0  0  0  0  0  0  0  0  0
    4.0237    0.8803    0.4136 C   0  0  0  0  0  0  0  0  0  0  0  0
    2.6800    1.3533    0.9368 C   0  0  0  0  0  0  0  0  0  0  0  0
    3.3926    0.9682   -1.8332 O   0  0  0  0  0  0  0  0  0  0  0  0
    2.7452   -1.9604    0.1882 C   0  0  0  0  0  0  0  0  0  0  0  0
    0.5577    1.2652   -0.7935 H   0  0  0  0  0  0  0  0  0  0  0  0
   -2.6181   -0.6533   -1.3743 C   0  0  0  0  0  0  0  0  0  0  0  0
   -0.1220   -1.2954    0.5994 H   0  0  0  0  0  0  0  0  0  0  0  0
    1.5618   -0.3408    1.5778 H   0  0  0  0  0  0  0  0  0  0  0  0
   -5.7782    0.1455    0.5936 O   0  0  0  0  0  0  0  0  0  0  0  0
   -3.9979    2.1572    1.0921 H   0  0  0  0  0  0  0  0  0  0  0  0
   -2.0102   -1.2250    1.9274 H   0  0  0  0  0  0  0  0  0  0  0  0
   -2.1796   -2.3341    0.5504 H   0  0  0  0  0  0  0  0  0  0  0  0
   -4.2802   -1.6379    2.0245 H   0  0  0  0  0  0  0  0  0  0  0  0
   -4.4336   -2.0932    0.3148 H   0  0  0  0  0  0  0  0  0  0  0  0
   -1.2267    2.4431   -0.6527 H   0  0  0  0  0  0  0  0  0  0  0  0
   -1.9149    3.0249    0.9697 H   0  0  0  0  0  0  0  0  0  0  0  0
   -0.4412    1.3666    2.1128 H   0  0  0  0  0  0  0  0  0  0  0  0
    0.4297    2.5914    1.1560 H   0  0  0  0  0  0  0  0  0  0  0  0
    1.9125   -1.6773   -2.2060 H   0  0  0  0  0  0  0  0  0  0  0  0
    1.7577    0.0829   -2.3317 H   0  0  0  0  0  0  0  0  0  0  0  0
   -0.2140   -2.0469   -1.5589 H   0  0  0  0  0  0  0  0  0  0  0  0
   -0.4546   -0.3270   -2.2292 H   0  0  0  0  0  0  0  0  0  0  0  0
    4.3664   -0.6838   -1.0757 H   0  0  0  0  0  0  0  0  0  0  0  0
    4.5737    0.2845    1.1597 H   0  0  0  0  0  0  0  0  0  0  0  0
    4.6379    1.7447    0.0468 H   0  0  0  0  0  0  0  0  0  0  0  0
    2.8051    1.5261    2.0300 H   0  0  0  0  0  0  0  0  0  0  0  0
    2.4512    2.3032    0.4096 H   0  0  0  0  0  0  0  0  0  0  0  0
    3.0553    1.8394   -1.5063 H   0  0  0  0  0  0  0  0  0  0  0  0
    3.6302   -1.7160    0.8408 H   0  0  0  0  0  0  0  0  0  0  0  0
    1.9952   -2.3983    0.8404 H   0  0  0  0  0  0  0  0  0  0  0  0
    3.1248   -2.6299   -0.5974 H   0  0  0  0  0  0  0  0  0  0  0  0
   -2.6754    0.2279   -2.0551 H   0  0  0  0  0  0  0  0  0  0  0  0
   -2.1155   -1.4544   -1.9486 H   0  0  0  0  0  0  0  0  0  0  0  0
   -3.6603   -1.0151   -1.2540 H   0  0  0  0  0  0  0  0  0  0  0  0
  1  6  1  0  0  0  0
  1 25  1  0  0  0  0
  2  7  1  0  0  0  0
  2  1  2  0  0  0  0
  3 21  1  6  0  0  0
  3  2  1  0  0  0  0
  3  4  1  0  0  0  0
  4  5  1  0  0  0  0
  4 26  1  0  0  0  0
  5 28  1  0  0  0  0
  6  5  1  0  0  0  0
  7 31  1  0  0  0  0
  7  8  1  0  0  0  0
  8 33  1  0  0  0  0
  8 32  1  0  0  0  0
  9 20  1  6  0  0  0
  9 11  1  0  0  0  0
  9  8  1  0  0  0  0
 10  3  1  0  0  0  0
 10  9  1  0  0  0  0
 10 22  1  1  0  0  0
 11 17  1  0  0  0  0
 11 23  1  1  0  0  0
 12 19  1  1  0  0  0
 12 11  1  0  0  0  0
 13 14  1  0  0  0  0
 13 12  1  0  0  0  0
 14 10  1  0  0  0  0
 15 38  1  6  0  0  0
 15 12  1  0  0  0  0
 15 16  1  0  0  0  0
 16 17  1  0  0  0  0
 16 39  1  0  0  0  0
 17 41  1  0  0  0  0
 18 43  1  0  0  0  0
 18 15  1  0  0  0  0
 19 45  1  0  0  0  0
 19 44  1  0  0  0  0
 21 49  1  0  0  0  0
 24  6  2  0  0  0  0
 27  4  1  0  0  0  0
 29  5  1  0  0  0  0
 30  7  1  0  0  0  0
 34 13  1  0  0  0  0
 35 13  1  0  0  0  0
 36 14  1  0  0  0  0
 37 14  1  0  0  0  0
 40 16  1  0  0  0  0
 42 17  1  0  0  0  0
 46 19  1  0  0  0  0
 47 21  1  0  0  0  0
 48 21  1  0  0  0  0
M  END
$$$$
