
 OpenBabel09302112093D

 49 52  0  0  1  0  0  0  0  0999 V2000
    3.7033    0.3951    1.2106 C   0  0  0  0  0  0  0  0  0  0  0  0
    2.4233    0.0847    1.1580 C   0  0  0  0  0  0  0  0  0  0  0  0
    1.8914   -0.3554   -0.1612 C   0  0  2  0  0  0  0  0  0  0  0  0
    2.4092    0.6513   -1.1577 C   0  0  0  0  0  0  0  0  0  0  0  0
    3.9238    0.4841   -1.3187 C   0  0  0  0  0  0  0  0  0  0  0  0
    4.5572    0.3001    0.0018 C   0  0  0  0  0  0  0  0  0  0  0  0
    1.6022    0.1880    2.3655 C   0  0  0  0  0  0  0  0  0  0  0  0
    0.2742    0.7853    1.9421 C   0  0  0  0  0  0  0  0  0  0  0  0
   -0.3736   -0.1365    0.9716 C   0  0  1  0  0  0  0  0  0  0  0  0
    0.4378   -0.5970   -0.1816 C   0  0  2  0  0  0  0  0  0  0  0  0
   -1.6004    0.5500    0.4225 C   0  0  1  0  0  0  0  0  0  0  0  0
   -2.3817   -0.3561   -0.5073 C   0  0  2  0  0  0  0  0  0  0  0  0
   -1.5570   -0.5387   -1.7325 C   0  0  0  0  0  0  0  0  0  0  0  0
   -0.1136   -0.0988   -1.5285 C   0  0  0  0  0  0  0  0  0  0  0  0
   -3.6314    0.4774   -0.7208 C   0  0  2  0  0  0  0  0  0  0  0  0
   -3.8017    1.3095    0.5333 C   0  0  0  0  0  0  0  0  0  0  0  0
   -2.6275    0.9179    1.4330 C   0  0  0  0  0  0  0  0  0  0  0  0
   -3.4669    1.2543   -1.8515 O   0  0  0  0  0  0  0  0  0  0  0  0
   -2.7922   -1.6485    0.1057 C   0  0  0  0  0  0  0  0  0  0  0  0
   -0.7533   -1.0039    1.5971 H   0  0  0  0  0  0  0  0  0  0  0  0
    2.6097   -1.6703   -0.5074 C   0  0  0  0  0  0  0  0  0  0  0  0
    0.2461   -1.7162   -0.2546 H   0  0  0  0  0  0  0  0  0  0  0  0
   -1.2946    1.4355   -0.1448 H   0  0  0  0  0  0  0  0  0  0  0  0
    5.7781    0.0729    0.0587 O   0  0  0  0  0  0  0  0  0  0  0  0
    4.1674    0.7250    2.1270 H   0  0  0  0  0  0  0  0  0  0  0  0
    2.2799    1.6653   -0.6961 H   0  0  0  0  0  0  0  0  0  0  0  0
    1.9888    0.5935   -2.1538 H   0  0  0  0  0  0  0  0  0  0  0  0
    4.2935    1.4730   -1.7043 H   0  0  0  0  0  0  0  0  0  0  0  0
    4.1964   -0.2540   -2.0682 H   0  0  0  0  0  0  0  0  0  0  0  0
    1.3649   -0.7997    2.8292 H   0  0  0  0  0  0  0  0  0  0  0  0
    2.0081    0.8304    3.1450 H   0  0  0  0  0  0  0  0  0  0  0  0
    0.3750    1.8286    1.5903 H   0  0  0  0  0  0  0  0  0  0  0  0
   -0.3564    0.8234    2.8540 H   0  0  0  0  0  0  0  0  0  0  0  0
   -1.9243    0.0645   -2.5999 H   0  0  0  0  0  0  0  0  0  0  0  0
   -1.5695   -1.6307   -1.9817 H   0  0  0  0  0  0  0  0  0  0  0  0
   -0.0073    0.9749   -1.6582 H   0  0  0  0  0  0  0  0  0  0  0  0
    0.4559   -0.7101   -2.2907 H   0  0  0  0  0  0  0  0  0  0  0  0
   -4.5385   -0.1676   -0.8154 H   0  0  0  0  0  0  0  0  0  0  0  0
   -4.7676    1.1128    1.0363 H   0  0  0  0  0  0  0  0  0  0  0  0
   -3.6580    2.3657    0.2655 H   0  0  0  0  0  0  0  0  0  0  0  0
   -2.9737    0.0387    2.0074 H   0  0  0  0  0  0  0  0  0  0  0  0
   -2.3320    1.7607    2.0872 H   0  0  0  0  0  0  0  0  0  0  0  0
   -3.9252    0.7621   -2.5991 H   0  0  0  0  0  0  0  0  0  0  0  0
   -2.2554   -2.4738   -0.4461 H   0  0  0  0  0  0  0  0  0  0  0  0
   -2.5884   -1.7750    1.1633 H   0  0  0  0  0  0  0  0  0  0  0  0
   -3.8779   -1.8765   -0.0525 H   0  0  0  0  0  0  0  0  0  0  0  0
    1.8832   -2.5243   -0.3585 H   0  0  0  0  0  0  0  0  0  0  0  0
    3.4393   -1.8826    0.1692 H   0  0  0  0  0  0  0  0  0  0  0  0
    2.8594   -1.7093   -1.5835 H   0  0  0  0  0  0  0  0  0  0  0  0
  1 25  1  0  0  0  0
  2  1  2  0  0  0  0
  2  7  1  0  0  0  0
  3 21  1  6  0  0  0
  3  2  1  0  0  0  0
  4 26  1  0  0  0  0
  4  3  1  0  0  0  0
  5  4  1  0  0  0  0
  5  6  1  0  0  0  0
  6 24  2  0  0  0  0
  6  1  1  0  0  0  0
  7 30  1  0  0  0  0
  7 31  1  0  0  0  0
  8  7  1  0  0  0  0
  8 33  1  0  0  0  0
  9 20  1  1  0  0  0
  9  8  1  0  0  0  0
 10 22  1  6  0  0  0
 10  3  1  0  0  0  0
 10  9  1  0  0  0  0
 11 23  1  6  0  0  0
 11  9  1  0  0  0  0
 11 17  1  0  0  0  0
 12 19  1  1  0  0  0
 12 11  1  0  0  0  0
 13 14  1  0  0  0  0
 13 12  1  0  0  0  0
 14 10  1  0  0  0  0
 15 38  1  6  0  0  0
 15 12  1  0  0  0  0
 15 16  1  0  0  0  0
 16 39  1  0  0  0  0
 16 17  1  0  0  0  0
 17 41  1  0  0  0  0
 17 42  1  0  0  0  0
 18 15  1  0  0  0  0
 19 45  1  0  0  0  0
 21 47  1  0  0  0  0
 21 48  1  0  0  0  0
 27  4  1  0  0  0  0
 28  5  1  0  0  0  0
 29  5  1  0  0  0  0
 32  8  1  0  0  0  0
 34 13  1  0  0  0  0
 35 13  1  0  0  0  0
 36 14  1  0  0  0  0
 37 14  1  0  0  0  0
 40 16  1  0  0  0  0
 43 18  1  0  0  0  0
 44 19  1  0  0  0  0
 46 19  1  0  0  0  0
 49 21  1  0  0  0  0
M  END
$$$$
