
 OpenBabel09302112093D

 49 52  0  0  1  0  0  0  0  0999 V2000
   -3.2452    1.3902    0.8238 C   0  0  0  0  0  0  0  0  0  0  0  0
   -2.2649    0.5457    0.9268 C   0  0  0  0  0  0  0  0  0  0  0  0
   -1.9853   -0.6063    0.0404 C   0  0  1  0  0  0  0  0  0  0  0  0
   -2.8939   -0.6816   -1.1507 C   0  0  0  0  0  0  0  0  0  0  0  0
   -4.2253   -0.0281   -0.9756 C   0  0  0  0  0  0  0  0  0  0  0  0
   -4.2044    1.2382   -0.2601 C   0  0  0  0  0  0  0  0  0  0  0  0
   -1.2943    0.7364    2.0604 C   0  0  0  0  0  0  0  0  0  0  0  0
    0.0080    1.1686    1.4155 C   0  0  0  0  0  0  0  0  0  0  0  0
    0.1189    0.7775    0.0001 C   0  0  1  0  0  0  0  0  0  0  0  0
   -0.5460   -0.5673   -0.3297 C   0  0  2  0  0  0  0  0  0  0  0  0
    1.4499    0.7358   -0.6012 C   0  0  2  0  0  0  0  0  0  0  0  0
    2.3547   -0.3815   -0.1567 C   0  0  1  0  0  0  0  0  0  0  0  0
    1.6658   -1.6758   -0.3706 C   0  0  0  0  0  0  0  0  0  0  0  0
    0.2626   -1.7262    0.1599 C   0  0  0  0  0  0  0  0  0  0  0  0
    3.4703   -0.1286   -1.1874 C   0  0  1  0  0  0  0  0  0  0  0  0
    3.6784    1.3752   -0.9544 C   0  0  0  0  0  0  0  0  0  0  0  0
    2.3212    1.9197   -0.5007 C   0  0  0  0  0  0  0  0  0  0  0  0
    3.0457   -0.3900   -2.4707 O   0  0  0  0  0  0  0  0  0  0  0  0
    2.9881   -0.1986    1.1734 C   0  0  0  0  0  0  0  0  0  0  0  0
   -0.4929    1.5202   -0.5987 H   0  0  0  0  0  0  0  0  0  0  0  0
   -2.2985   -1.8473    0.8858 C   0  0  0  0  0  0  0  0  0  0  0  0
   -0.4954   -0.6136   -1.4596 H   0  0  0  0  0  0  0  0  0  0  0  0
    1.2999    0.5495   -1.7124 H   0  0  0  0  0  0  0  0  0  0  0  0
   -5.0038    2.1592   -0.5897 O   0  0  0  0  0  0  0  0  0  0  0  0
   -3.3611    2.2168    1.5422 H   0  0  0  0  0  0  0  0  0  0  0  0
   -2.3801   -0.1819   -2.0016 H   0  0  0  0  0  0  0  0  0  0  0  0
   -3.0843   -1.7251   -1.4849 H   0  0  0  0  0  0  0  0  0  0  0  0
   -4.7017    0.1269   -1.9655 H   0  0  0  0  0  0  0  0  0  0  0  0
   -4.9285   -0.7169   -0.4215 H   0  0  0  0  0  0  0  0  0  0  0  0
   -1.1768   -0.1827    2.6611 H   0  0  0  0  0  0  0  0  0  0  0  0
   -1.6619    1.5145    2.7729 H   0  0  0  0  0  0  0  0  0  0  0  0
    0.8112    0.8548    2.0846 H   0  0  0  0  0  0  0  0  0  0  0  0
   -0.0007    2.2985    1.4678 H   0  0  0  0  0  0  0  0  0  0  0  0
    2.2465   -2.4710    0.1779 H   0  0  0  0  0  0  0  0  0  0  0  0
    1.7333   -1.9569   -1.4411 H   0  0  0  0  0  0  0  0  0  0  0  0
   -0.2082   -2.6470   -0.2415 H   0  0  0  0  0  0  0  0  0  0  0  0
    0.3140   -1.8262    1.2495 H   0  0  0  0  0  0  0  0  0  0  0  0
    4.3554   -0.7019   -0.8783 H   0  0  0  0  0  0  0  0  0  0  0  0
    4.4132    1.5265   -0.1367 H   0  0  0  0  0  0  0  0  0  0  0  0
    3.9917    1.8110   -1.9117 H   0  0  0  0  0  0  0  0  0  0  0  0
    2.0008    2.6650   -1.2792 H   0  0  0  0  0  0  0  0  0  0  0  0
    2.3629    2.4347    0.4494 H   0  0  0  0  0  0  0  0  0  0  0  0
    3.2687   -1.3393   -2.6683 H   0  0  0  0  0  0  0  0  0  0  0  0
    3.1263    0.8402    1.4661 H   0  0  0  0  0  0  0  0  0  0  0  0
    2.5084   -0.8319    1.9770 H   0  0  0  0  0  0  0  0  0  0  0  0
    4.0317   -0.6346    1.1074 H   0  0  0  0  0  0  0  0  0  0  0  0
   -1.6557   -1.9438    1.7574 H   0  0  0  0  0  0  0  0  0  0  0  0
   -3.3389   -1.6559    1.2835 H   0  0  0  0  0  0  0  0  0  0  0  0
   -2.3796   -2.7451    0.2657 H   0  0  0  0  0  0  0  0  0  0  0  0
  1  2  2  0  0  0  0
  1 25  1  0  0  0  0
  2  7  1  0  0  0  0
  3 21  1  1  0  0  0
  3  2  1  0  0  0  0
  4  5  1  0  0  0  0
  4  3  1  0  0  0  0
  5 29  1  0  0  0  0
  5  6  1  0  0  0  0
  6  1  1  0  0  0  0
  7 30  1  0  0  0  0
  7 31  1  0  0  0  0
  8 33  1  0  0  0  0
  8  7  1  0  0  0  0
  8 32  1  0  0  0  0
  9 20  1  6  0  0  0
  9  8  1  0  0  0  0
 10 22  1  6  0  0  0
 10  9  1  0  0  0  0
 10  3  1  0  0  0  0
 10 14  1  0  0  0  0
 11 23  1  6  0  0  0
 11 17  1  0  0  0  0
 11 12  1  0  0  0  0
 11  9  1  0  0  0  0
 12 19  1  1  0  0  0
 13 12  1  0  0  0  0
 13 14  1  0  0  0  0
 13 34  1  0  0  0  0
 14 37  1  0  0  0  0
 15 16  1  0  0  0  0
 15 38  1  1  0  0  0
 15 12  1  0  0  0  0
 16 17  1  0  0  0  0
 16 39  1  0  0  0  0
 17 42  1  0  0  0  0
 18 15  1  0  0  0  0
 19 44  1  0  0  0  0
 19 45  1  0  0  0  0
 21 48  1  0  0  0  0
 21 47  1  0  0  0  0
 24  6  2  0  0  0  0
 26  4  1  0  0  0  0
 27  4  1  0  0  0  0
 28  5  1  0  0  0  0
 35 13  1  0  0  0  0
 36 14  1  0  0  0  0
 40 16  1  0  0  0  0
 41 17  1  0  0  0  0
 43 18  1  0  0  0  0
 46 19  1  0  0  0  0
 49 21  1  0  0  0  0
M  END
$$$$
