
 OpenBabel09302112093D

 49 52  0  0  1  0  0  0  0  0999 V2000
    3.6487    0.7279    0.9158 C   0  0  0  0  0  0  0  0  0  0  0  0
    2.4931    0.1102    0.9991 C   0  0  0  0  0  0  0  0  0  0  0  0
    1.9008   -0.6310   -0.1106 C   0  0  2  0  0  0  0  0  0  0  0  0
    2.5434   -0.4697   -1.4496 C   0  0  0  0  0  0  0  0  0  0  0  0
    3.4659    0.7159   -1.5459 C   0  0  0  0  0  0  0  0  0  0  0  0
    4.3576    0.6818   -0.3565 C   0  0  0  0  0  0  0  0  0  0  0  0
    1.7334    0.1489    2.3164 C   0  0  0  0  0  0  0  0  0  0  0  0
    0.4143    0.8417    1.9282 C   0  0  0  0  0  0  0  0  0  0  0  0
   -0.2993   -0.1300    1.0283 C   0  0  1  0  0  0  0  0  0  0  0  0
    0.4158   -0.2458   -0.3015 C   0  0  1  0  0  0  0  0  0  0  0  0
   -1.7270    0.1142    0.8515 C   0  0  2  0  0  0  0  0  0  0  0  0
   -2.2364   -0.0521   -0.5727 C   0  0  1  0  0  0  0  0  0  0  0  0
   -1.7362   -1.3957   -0.9954 C   0  0  0  0  0  0  0  0  0  0  0  0
   -0.2362   -1.2776   -1.1587 C   0  0  0  0  0  0  0  0  0  0  0  0
   -3.7140    0.0074   -0.2394 C   0  0  2  0  0  0  0  0  0  0  0  0
   -3.7286    1.2979    0.5992 C   0  0  0  0  0  0  0  0  0  0  0  0
   -2.3259    1.4069    1.2153 C   0  0  0  0  0  0  0  0  0  0  0  0
   -4.5010    0.1214   -1.3611 O   0  0  0  0  0  0  0  0  0  0  0  0
   -1.9390    1.0586   -1.4965 C   0  0  0  0  0  0  0  0  0  0  0  0
   -0.1461   -1.1377    1.5252 H   0  0  0  0  0  0  0  0  0  0  0  0
    1.9875   -2.1246    0.2119 C   0  0  0  0  0  0  0  0  0  0  0  0
    0.4732    0.7635   -0.7299 H   0  0  0  0  0  0  0  0  0  0  0  0
   -2.3170   -0.6648    1.4332 H   0  0  0  0  0  0  0  0  0  0  0  0
    5.6082    0.6196   -0.4037 O   0  0  0  0  0  0  0  0  0  0  0  0
    4.0791    1.2553    1.7729 H   0  0  0  0  0  0  0  0  0  0  0  0
    1.7984   -0.4289   -2.2829 H   0  0  0  0  0  0  0  0  0  0  0  0
    3.1881   -1.3651   -1.7068 H   0  0  0  0  0  0  0  0  0  0  0  0
    4.0681    0.6514   -2.4804 H   0  0  0  0  0  0  0  0  0  0  0  0
    2.9087    1.6833   -1.5347 H   0  0  0  0  0  0  0  0  0  0  0  0
    2.2823    0.7038    3.0636 H   0  0  0  0  0  0  0  0  0  0  0  0
    1.4561   -0.8834    2.6034 H   0  0  0  0  0  0  0  0  0  0  0  0
   -0.1865    1.0589    2.8226 H   0  0  0  0  0  0  0  0  0  0  0  0
    0.7181    1.7527    1.3772 H   0  0  0  0  0  0  0  0  0  0  0  0
   -2.0037   -2.1240   -0.2013 H   0  0  0  0  0  0  0  0  0  0  0  0
   -2.2480   -1.7022   -1.9148 H   0  0  0  0  0  0  0  0  0  0  0  0
    0.1846   -2.2699   -0.8984 H   0  0  0  0  0  0  0  0  0  0  0  0
   -0.0795   -1.1079   -2.2455 H   0  0  0  0  0  0  0  0  0  0  0  0
   -4.0124   -0.7996    0.4418 H   0  0  0  0  0  0  0  0  0  0  0  0
   -4.4750    1.2036    1.3979 H   0  0  0  0  0  0  0  0  0  0  0  0
   -3.9067    2.1684   -0.0686 H   0  0  0  0  0  0  0  0  0  0  0  0
   -1.8050    2.3123    0.9286 H   0  0  0  0  0  0  0  0  0  0  0  0
   -2.4403    1.4358    2.3388 H   0  0  0  0  0  0  0  0  0  0  0  0
   -4.2284   -0.5928   -1.9916 H   0  0  0  0  0  0  0  0  0  0  0  0
   -1.2959    0.6563   -2.3359 H   0  0  0  0  0  0  0  0  0  0  0  0
   -2.8796    1.3703   -2.0502 H   0  0  0  0  0  0  0  0  0  0  0  0
   -1.5556    1.9829   -1.0646 H   0  0  0  0  0  0  0  0  0  0  0  0
    2.1566   -2.7351   -0.7023 H   0  0  0  0  0  0  0  0  0  0  0  0
    1.1937   -2.4755    0.8600 H   0  0  0  0  0  0  0  0  0  0  0  0
    2.9474   -2.2376    0.7975 H   0  0  0  0  0  0  0  0  0  0  0  0
  1  2  2  0  0  0  0
  1 25  1  0  0  0  0
  2  7  1  0  0  0  0
  3 21  1  1  0  0  0
  3  2  1  0  0  0  0
  4  3  1  0  0  0  0
  5 29  1  0  0  0  0
  5  4  1  0  0  0  0
  5  6  1  0  0  0  0
  6  1  1  0  0  0  0
  7 31  1  0  0  0  0
  7 30  1  0  0  0  0
  8  7  1  0  0  0  0
  8 32  1  0  0  0  0
  9 20  1  1  0  0  0
  9  8  1  0  0  0  0
 10 22  1  6  0  0  0
 10  3  1  0  0  0  0
 10  9  1  0  0  0  0
 11  9  1  0  0  0  0
 11 17  1  0  0  0  0
 11 23  1  1  0  0  0
 12 19  1  6  0  0  0
 12 15  1  0  0  0  0
 12 11  1  0  0  0  0
 13 12  1  0  0  0  0
 13 34  1  0  0  0  0
 14 13  1  0  0  0  0
 14 36  1  0  0  0  0
 14 10  1  0  0  0  0
 15 38  1  1  0  0  0
 15 16  1  0  0  0  0
 16 17  1  0  0  0  0
 16 39  1  0  0  0  0
 17 42  1  0  0  0  0
 18 15  1  0  0  0  0
 19 46  1  0  0  0  0
 21 49  1  0  0  0  0
 21 48  1  0  0  0  0
 24  6  2  0  0  0  0
 26  4  1  0  0  0  0
 27  4  1  0  0  0  0
 28  5  1  0  0  0  0
 33  8  1  0  0  0  0
 35 13  1  0  0  0  0
 37 14  1  0  0  0  0
 40 16  1  0  0  0  0
 41 17  1  0  0  0  0
 43 18  1  0  0  0  0
 44 19  1  0  0  0  0
 45 19  1  0  0  0  0
 47 21  1  0  0  0  0
M  END
$$$$
