
 OpenBabel09302112093D

 49 52  0  0  1  0  0  0  0  0999 V2000
   -3.1809   -1.5362    0.4318 C   0  0  0  0  0  0  0  0  0  0  0  0
   -2.3338   -1.0174   -0.4042 C   0  0  0  0  0  0  0  0  0  0  0  0
   -1.9716    0.4317   -0.4996 C   0  0  1  0  0  0  0  0  0  0  0  0
   -2.7737    1.2991    0.3873 C   0  0  0  0  0  0  0  0  0  0  0  0
   -3.3327    0.6425    1.6272 C   0  0  0  0  0  0  0  0  0  0  0  0
   -3.8714   -0.6937    1.3831 C   0  0  0  0  0  0  0  0  0  0  0  0
   -1.6347   -1.9322   -1.3795 C   0  0  0  0  0  0  0  0  0  0  0  0
   -0.1711   -1.6321   -1.2915 C   0  0  0  0  0  0  0  0  0  0  0  0
    0.1153   -0.7417   -0.0931 C   0  0  1  0  0  0  0  0  0  0  0  0
   -0.4776    0.6003   -0.4137 C   0  0  1  0  0  0  0  0  0  0  0  0
    1.5504   -0.7752    0.2022 C   0  0  2  0  0  0  0  0  0  0  0  0
    2.1568    0.4113    0.8365 C   0  0  2  0  0  0  0  0  0  0  0  0
    1.4253    1.6825    0.7749 C   0  0  0  0  0  0  0  0  0  0  0  0
   -0.0418    1.6261    0.5806 C   0  0  0  0  0  0  0  0  0  0  0  0
    3.4956    0.5859    0.1156 C   0  0  2  0  0  0  0  0  0  0  0  0
    3.7845   -0.7573   -0.5134 C   0  0  0  0  0  0  0  0  0  0  0  0
    2.3870   -1.1131   -1.0410 C   0  0  0  0  0  0  0  0  0  0  0  0
    3.2915    1.4812   -0.9310 O   0  0  0  0  0  0  0  0  0  0  0  0
    2.5637    0.1023    2.2890 C   0  0  0  0  0  0  0  0  0  0  0  0
   -0.5086   -1.1713    0.7434 H   0  0  0  0  0  0  0  0  0  0  0  0
   -2.3468    0.8040   -1.9502 C   0  0  0  0  0  0  0  0  0  0  0  0
   -0.0127    0.9063   -1.3987 H   0  0  0  0  0  0  0  0  0  0  0  0
    1.7288   -1.6685    0.8761 H   0  0  0  0  0  0  0  0  0  0  0  0
   -4.9029   -1.0449    2.0079 O   0  0  0  0  0  0  0  0  0  0  0  0
   -3.3878   -2.6004    0.4359 H   0  0  0  0  0  0  0  0  0  0  0  0
   -2.2543    2.2113    0.7311 H   0  0  0  0  0  0  0  0  0  0  0  0
   -3.6825    1.6949   -0.1626 H   0  0  0  0  0  0  0  0  0  0  0  0
   -2.5912    0.5713    2.4466 H   0  0  0  0  0  0  0  0  0  0  0  0
   -4.1506    1.2915    1.9992 H   0  0  0  0  0  0  0  0  0  0  0  0
   -2.0535   -1.8276   -2.3984 H   0  0  0  0  0  0  0  0  0  0  0  0
   -1.8139   -3.0030   -1.0944 H   0  0  0  0  0  0  0  0  0  0  0  0
    0.1338   -1.1283   -2.2375 H   0  0  0  0  0  0  0  0  0  0  0  0
    0.3953   -2.5821   -1.2400 H   0  0  0  0  0  0  0  0  0  0  0  0
    1.8724    2.3757   -0.0007 H   0  0  0  0  0  0  0  0  0  0  0  0
    1.6053    2.2496    1.7388 H   0  0  0  0  0  0  0  0  0  0  0  0
   -0.5318    1.4911    1.5490 H   0  0  0  0  0  0  0  0  0  0  0  0
   -0.3541    2.6295    0.1611 H   0  0  0  0  0  0  0  0  0  0  0  0
    4.2922    0.9186    0.7971 H   0  0  0  0  0  0  0  0  0  0  0  0
    4.1015   -1.4488    0.2774 H   0  0  0  0  0  0  0  0  0  0  0  0
    4.4998   -0.6583   -1.3396 H   0  0  0  0  0  0  0  0  0  0  0  0
    2.4039   -2.1854   -1.2422 H   0  0  0  0  0  0  0  0  0  0  0  0
    2.1429   -0.4666   -1.8809 H   0  0  0  0  0  0  0  0  0  0  0  0
    3.6911    1.1551   -1.7901 H   0  0  0  0  0  0  0  0  0  0  0  0
    3.3352   -0.7177    2.2161 H   0  0  0  0  0  0  0  0  0  0  0  0
    3.0078    0.9999    2.7440 H   0  0  0  0  0  0  0  0  0  0  0  0
    1.6948   -0.2825    2.8203 H   0  0  0  0  0  0  0  0  0  0  0  0
   -1.8277    0.1804   -2.6772 H   0  0  0  0  0  0  0  0  0  0  0  0
   -3.4473    0.7794   -2.0520 H   0  0  0  0  0  0  0  0  0  0  0  0
   -2.0198    1.8626   -2.1406 H   0  0  0  0  0  0  0  0  0  0  0  0
  1 25  1  0  0  0  0
  1  6  1  0  0  0  0
  2  1  2  0  0  0  0
  3 21  1  6  0  0  0
  3 10  1  0  0  0  0
  3  2  1  0  0  0  0
  3  4  1  0  0  0  0
  4 26  1  0  0  0  0
  4  5  1  0  0  0  0
  5 29  1  0  0  0  0
  5 28  1  0  0  0  0
  6  5  1  0  0  0  0
  6 24  2  0  0  0  0
  7  8  1  0  0  0  0
  7 31  1  0  0  0  0
  7  2  1  0  0  0  0
  8 33  1  0  0  0  0
  8  9  1  0  0  0  0
  9 11  1  0  0  0  0
  9 20  1  1  0  0  0
 10 22  1  6  0  0  0
 10  9  1  0  0  0  0
 10 14  1  0  0  0  0
 11 12  1  0  0  0  0
 11 23  1  1  0  0  0
 12 19  1  1  0  0  0
 13 12  1  0  0  0  0
 13 35  1  0  0  0  0
 14 13  1  0  0  0  0
 14 36  1  0  0  0  0
 15 38  1  1  0  0  0
 15 12  1  0  0  0  0
 16 15  1  0  0  0  0
 16 39  1  0  0  0  0
 17 16  1  0  0  0  0
 17 11  1  0  0  0  0
 18 15  1  0  0  0  0
 19 45  1  0  0  0  0
 19 46  1  0  0  0  0
 27  4  1  0  0  0  0
 30  7  1  0  0  0  0
 32  8  1  0  0  0  0
 34 13  1  0  0  0  0
 37 14  1  0  0  0  0
 40 16  1  0  0  0  0
 41 17  1  0  0  0  0
 42 17  1  0  0  0  0
 43 18  1  0  0  0  0
 44 19  1  0  0  0  0
 47 21  1  0  0  0  0
 48 21  1  0  0  0  0
 49 21  1  0  0  0  0
M  END
$$$$
