
 OpenBabel11301904083D

 61 62  0  0  1  0  0  0  0  0999 V2000
   -1.7938    0.9577    2.8974 C   0  0  0  0  0  0  0  0  0  0  0  0
   -1.6100    2.3466    3.0916 C   0  0  0  0  0  0  0  0  0  0  0  0
   -0.9280    3.0902    2.1001 C   0  0  0  0  0  0  0  0  0  0  0  0
   -0.4771    2.4651    0.9233 C   0  0  0  0  0  0  0  0  0  0  0  0
   -0.6647    1.0793    0.7337 C   0  0  0  0  0  0  0  0  0  0  0  0
   -1.3227    0.3287    1.7299 C   0  0  0  0  0  0  0  0  0  0  0  0
   -2.1359    3.0255    4.2985 C   0  0  0  0  0  0  0  0  0  0  0  0
   -1.0277    3.4495    5.1141 O   0  0  0  0  0  0  0  0  0  0  0  0
   -1.4055    4.0467    6.3687 C   0  0  0  0  0  0  0  0  0  0  0  0
   -0.1524    4.3632    7.2368 C   0  0  2  0  0  0  0  0  0  0  0  0
   -0.5356    5.0456    8.5799 C   0  0  0  0  0  0  0  0  0  0  0  0
    0.7201    3.1747    7.4793 C   0  0  0  0  0  0  0  0  0  0  0  0
    0.2212    1.8521    7.9428 C   0  0  0  0  0  0  0  0  0  0  0  0
    1.9500    3.2898    7.2607 O   0  0  0  0  0  0  0  0  0  0  0  0
    0.2622    0.7654    6.8230 C   0  0  2  0  0  0  0  0  0  0  0  0
   -0.3896   -0.6193    7.1707 C   0  0  1  0  0  0  0  0  0  0  0  0
   -1.8791   -0.4771    7.6108 C   0  0  0  0  0  0  0  0  0  0  0  0
   -0.3307   -1.6062    5.9595 C   0  0  0  0  0  0  0  0  0  0  0  0
    1.0054   -1.7731    5.4330 O   0  0  0  0  0  0  0  0  0  0  0  0
    1.0584   -2.3097    4.0988 C   0  0  0  0  0  0  0  0  0  0  0  0
    5.1074   -2.5820    2.6203 C   0  0  0  0  0  0  0  0  0  0  0  0
    4.3672   -1.4010    2.4319 C   0  0  0  0  0  0  0  0  0  0  0  0
    3.0632   -1.2956    2.9531 C   0  0  0  0  0  0  0  0  0  0  0  0
    2.4657   -2.3855    3.6308 C   0  0  0  0  0  0  0  0  0  0  0  0
    3.2292   -3.5621    3.8246 C   0  0  0  0  0  0  0  0  0  0  0  0
    4.5440   -3.6576    3.3296 C   0  0  0  0  0  0  0  0  0  0  0  0
   -0.2371    0.4741   -0.4194 O   0  0  0  0  0  0  0  0  0  0  0  0
    1.1293    0.0265   -0.3627 C   0  0  0  0  0  0  0  0  0  0  0  0
    1.6331    0.5556    6.4760 O   0  0  0  0  0  0  0  0  0  0  0  0
   -2.2747    0.3948    3.6039 H   0  0  0  0  0  0  0  0  0  0  0  0
   -0.7654    4.0943    2.2255 H   0  0  0  0  0  0  0  0  0  0  0  0
   -0.0081    3.0249    0.2071 H   0  0  0  0  0  0  0  0  0  0  0  0
   -1.4579   -0.6773    1.6094 H   0  0  0  0  0  0  0  0  0  0  0  0
   -2.7373    3.8838    3.9857 H   0  0  0  0  0  0  0  0  0  0  0  0
   -2.7856    2.3521    4.8668 H   0  0  0  0  0  0  0  0  0  0  0  0
   -1.9427    4.9738    6.1610 H   0  0  0  0  0  0  0  0  0  0  0  0
   -2.0777    3.3860    6.9222 H   0  0  0  0  0  0  0  0  0  0  0  0
    0.4318    5.1006    6.6745 H   0  0  0  0  0  0  0  0  0  0  0  0
   -1.1768    5.9439    8.3256 H   0  0  0  0  0  0  0  0  0  0  0  0
   -1.2371    4.3511    9.1320 H   0  0  0  0  0  0  0  0  0  0  0  0
    0.4731    5.2908    9.1265 H   0  0  0  0  0  0  0  0  0  0  0  0
    0.8281    1.5189    8.7877 H   0  0  0  0  0  0  0  0  0  0  0  0
   -0.7924    1.9724    8.3167 H   0  0  0  0  0  0  0  0  0  0  0  0
   -0.2480    1.1499    5.9390 H   0  0  0  0  0  0  0  0  0  0  0  0
    0.1648   -1.0688    8.0004 H   0  0  0  0  0  0  0  0  0  0  0  0
   -2.4375    0.0889    6.8619 H   0  0  0  0  0  0  0  0  0  0  0  0
   -1.9611    0.0346    8.5687 H   0  0  0  0  0  0  0  0  0  0  0  0
   -2.3588   -1.4508    7.7301 H   0  0  0  0  0  0  0  0  0  0  0  0
   -1.0090   -1.2297    5.1867 H   0  0  0  0  0  0  0  0  0  0  0  0
   -0.6888   -2.5897    6.2757 H   0  0  0  0  0  0  0  0  0  0  0  0
    0.4842   -1.6740    3.4195 H   0  0  0  0  0  0  0  0  0  0  0  0
    0.6020   -3.3025    4.0776 H   0  0  0  0  0  0  0  0  0  0  0  0
    6.0544   -2.6578    2.2408 H   0  0  0  0  0  0  0  0  0  0  0  0
    4.7758   -0.6216    1.9123 H   0  0  0  0  0  0  0  0  0  0  0  0
    2.5468   -0.4223    2.8227 H   0  0  0  0  0  0  0  0  0  0  0  0
    2.8293   -4.3634    4.3186 H   0  0  0  0  0  0  0  0  0  0  0  0
    5.0883   -4.5112    3.4776 H   0  0  0  0  0  0  0  0  0  0  0  0
    1.2599   -0.7547    0.3905 H   0  0  0  0  0  0  0  0  0  0  0  0
    1.3882   -0.3922   -1.3356 H   0  0  0  0  0  0  0  0  0  0  0  0
    1.8148    0.8528   -0.1579 H   0  0  0  0  0  0  0  0  0  0  0  0
    1.9322    1.3947    6.0713 H   0  0  0  0  0  0  0  0  0  0  0  0
  1  2  1  0  0  0  0
  1 30  1  0  0  0  0
  2  7  1  0  0  0  0
  3 31  1  0  0  0  0
  3  2  2  0  0  0  0
  4  3  1  0  0  0  0
  5  4  2  0  0  0  0
  5  6  1  0  0  0  0
  6  1  2  0  0  0  0
  7 35  1  0  0  0  0
  7  8  1  0  0  0  0
  8  9  1  0  0  0  0
  9 37  1  0  0  0  0
  9 10  1  0  0  0  0
 10 38  1  6  0  0  0
 10 12  1  0  0  0  0
 10 11  1  0  0  0  0
 11 41  1  0  0  0  0
 11 40  1  0  0  0  0
 12 13  1  0  0  0  0
 13 43  1  0  0  0  0
 13 42  1  0  0  0  0
 14 12  2  0  0  0  0
 15 44  1  6  0  0  0
 15 16  1  0  0  0  0
 15 13  1  0  0  0  0
 16 17  1  0  0  0  0
 16 45  1  1  0  0  0
 17 48  1  0  0  0  0
 17 47  1  0  0  0  0
 18 50  1  0  0  0  0
 18 16  1  0  0  0  0
 19 18  1  0  0  0  0
 20 19  1  0  0  0  0
 21 26  1  0  0  0  0
 22 21  2  0  0  0  0
 22 23  1  0  0  0  0
 23 24  2  0  0  0  0
 24 25  1  0  0  0  0
 24 20  1  0  0  0  0
 25 56  1  0  0  0  0
 26 57  1  0  0  0  0
 26 25  2  0  0  0  0
 27 28  1  0  0  0  0
 27  5  1  0  0  0  0
 28 60  1  0  0  0  0
 28 58  1  0  0  0  0
 29 15  1  0  0  0  0
 32  4  1  0  0  0  0
 33  6  1  0  0  0  0
 34  7  1  0  0  0  0
 36  9  1  0  0  0  0
 39 11  1  0  0  0  0
 46 17  1  0  0  0  0
 49 18  1  0  0  0  0
 51 20  1  0  0  0  0
 52 20  1  0  0  0  0
 53 21  1  0  0  0  0
 54 22  1  0  0  0  0
 55 23  1  0  0  0  0
 59 28  1  0  0  0  0
 61 29  1  0  0  0  0
M  END
$$$$
