
 OpenBabel11301903553D

 41 41  0  0  1  0  0  0  0  0999 V2000
    1.2736    0.2818    0.0642 C   0  0  0  0  0  0  0  0  0  0  0  0
    2.0223    1.4745    0.0375 C   0  0  0  0  0  0  0  0  0  0  0  0
    1.3652    2.7162   -0.0184 C   0  0  0  0  0  0  0  0  0  0  0  0
   -0.0392    2.7620   -0.0619 C   0  0  0  0  0  0  0  0  0  0  0  0
   -0.7882    1.5714   -0.0298 C   0  0  0  0  0  0  0  0  0  0  0  0
   -0.1433    0.3145    0.0436 C   0  0  0  0  0  0  0  0  0  0  0  0
    1.7723   -0.6090    0.1083 H   0  0  0  0  0  0  0  0  0  0  0  0
    3.0446    1.4416    0.0594 H   0  0  0  0  0  0  0  0  0  0  0  0
    1.9079    3.5833   -0.0306 H   0  0  0  0  0  0  0  0  0  0  0  0
   -0.5201    3.6617   -0.1182 H   0  0  0  0  0  0  0  0  0  0  0  0
   -1.8096    1.6315   -0.0616 H   0  0  0  0  0  0  0  0  0  0  0  0
   -0.9346   -0.9402    0.0995 C   0  0  0  0  0  0  0  0  0  0  0  0
   -0.9553   -1.5349   -1.2174 O   0  0  0  0  0  0  0  0  0  0  0  0
   -1.6178   -2.8170   -1.3328 C   0  0  1  0  0  0  0  0  0  0  0  0
   -0.8537   -3.9037   -0.6446 C   0  0  0  0  0  0  0  0  0  0  0  0
    0.4513   -4.4760   -1.1327 C   0  0  1  0  0  0  0  0  0  0  0  0
    1.0247   -5.6250   -0.2150 C   0  0  2  0  0  0  0  0  0  0  0  0
    0.2345   -6.8694   -0.2319 C   0  0  0  0  0  0  0  0  0  0  0  0
   -0.4931   -7.2357    0.8392 C   0  0  0  0  0  0  0  0  0  0  0  0
    0.2927   -7.7712   -1.3834 C   0  0  0  0  0  0  0  0  0  0  0  0
    2.3685   -5.9897   -0.5472 O   0  0  0  0  0  0  0  0  0  0  0  0
   -1.3714   -4.3339    0.4131 O   0  0  0  0  0  0  0  0  0  0  0  0
   -1.8814   -3.1190   -2.8276 C   0  0  0  0  0  0  0  0  0  0  0  0
    1.5305   -3.3689   -1.3353 C   0  0  0  0  0  0  0  0  0  0  0  0
   -0.4828   -1.6082    0.8390 H   0  0  0  0  0  0  0  0  0  0  0  0
   -1.9609   -0.7392    0.4256 H   0  0  0  0  0  0  0  0  0  0  0  0
   -2.6148   -2.7339   -0.8830 H   0  0  0  0  0  0  0  0  0  0  0  0
   -2.5490   -2.3591   -3.2369 H   0  0  0  0  0  0  0  0  0  0  0  0
   -2.3606   -4.0934   -2.9462 H   0  0  0  0  0  0  0  0  0  0  0  0
   -0.9558   -3.1082   -3.4045 H   0  0  0  0  0  0  0  0  0  0  0  0
    1.8372   -2.9532   -0.3727 H   0  0  0  0  0  0  0  0  0  0  0  0
    2.4115   -3.7808   -1.8317 H   0  0  0  0  0  0  0  0  0  0  0  0
    1.1718   -2.5630   -1.9758 H   0  0  0  0  0  0  0  0  0  0  0  0
    1.0965   -5.2236    0.8035 H   0  0  0  0  0  0  0  0  0  0  0  0
    2.9082   -5.1956   -0.3513 H   0  0  0  0  0  0  0  0  0  0  0  0
   -0.5428   -6.6639    1.6504 H   0  0  0  0  0  0  0  0  0  0  0  0
   -1.0017   -8.0883    0.8461 H   0  0  0  0  0  0  0  0  0  0  0  0
    0.9278   -8.6237   -1.1370 H   0  0  0  0  0  0  0  0  0  0  0  0
    0.7127   -7.2868   -2.2662 H   0  0  0  0  0  0  0  0  0  0  0  0
   -0.6985   -8.1439   -1.6517 H   0  0  0  0  0  0  0  0  0  0  0  0
    0.2572   -4.9001   -2.1204 H   0  0  0  0  0  0  0  0  0  0  0  0
  1  7  1  0  0  0  0
  2  8  1  0  0  0  0
  2  1  1  0  0  0  0
  3  2  2  0  0  0  0
  4  5  2  0  0  0  0
  4  3  1  0  0  0  0
  5  6  1  0  0  0  0
  6  1  2  0  0  0  0
  6 12  1  0  0  0  0
  9  3  1  0  0  0  0
 10  4  1  0  0  0  0
 11  5  1  0  0  0  0
 12 26  1  0  0  0  0
 12 25  1  0  0  0  0
 13 12  1  0  0  0  0
 14 13  1  0  0  0  0
 14 27  1  1  0  0  0
 14 15  1  0  0  0  0
 15 22  2  0  0  0  0
 16 41  1  6  0  0  0
 16 15  1  0  0  0  0
 16 17  1  0  0  0  0
 17 34  1  1  0  0  0
 18 17  1  0  0  0  0
 18 19  2  0  0  0  0
 19 37  1  0  0  0  0
 19 36  1  0  0  0  0
 20 38  1  0  0  0  0
 20 18  1  0  0  0  0
 21 35  1  0  0  0  0
 21 17  1  0  0  0  0
 23 14  1  0  0  0  0
 24 16  1  0  0  0  0
 24 31  1  0  0  0  0
 28 23  1  0  0  0  0
 29 23  1  0  0  0  0
 30 23  1  0  0  0  0
 32 24  1  0  0  0  0
 33 24  1  0  0  0  0
 39 20  1  0  0  0  0
 40 20  1  0  0  0  0
M  END
$$$$
