
 OpenBabel11301903553D

 41 41  0  0  1  0  0  0  0  0999 V2000
    1.2735    0.3369    0.0653 C   0  0  0  0  0  0  0  0  0  0  0  0
    2.0213    1.5300    0.0350 C   0  0  0  0  0  0  0  0  0  0  0  0
    1.3624    2.7704   -0.0221 C   0  0  0  0  0  0  0  0  0  0  0  0
   -0.0417    2.8145   -0.0746 C   0  0  0  0  0  0  0  0  0  0  0  0
   -0.7872    1.6202   -0.0389 C   0  0  0  0  0  0  0  0  0  0  0  0
   -0.1418    0.3635    0.0420 C   0  0  0  0  0  0  0  0  0  0  0  0
    1.7747   -0.5520    0.1136 H   0  0  0  0  0  0  0  0  0  0  0  0
    3.0445    1.4956    0.0592 H   0  0  0  0  0  0  0  0  0  0  0  0
    1.9015    3.6375   -0.0269 H   0  0  0  0  0  0  0  0  0  0  0  0
   -0.5215    3.7167   -0.1348 H   0  0  0  0  0  0  0  0  0  0  0  0
   -1.8090    1.6753   -0.0737 H   0  0  0  0  0  0  0  0  0  0  0  0
   -0.9262   -0.8953    0.1053 C   0  0  0  0  0  0  0  0  0  0  0  0
   -0.8935   -1.5360   -1.1853 O   0  0  0  0  0  0  0  0  0  0  0  0
   -1.6036   -2.7933   -1.2992 C   0  0  1  0  0  0  0  0  0  0  0  0
   -0.8842   -3.9028   -0.6012 C   0  0  0  0  0  0  0  0  0  0  0  0
    0.4013   -4.5157   -1.0824 C   0  0  1  0  0  0  0  0  0  0  0  0
    0.9828   -5.6520   -0.1617 C   0  0  1  0  0  0  0  0  0  0  0  0
    0.2189   -6.9130   -0.1988 C   0  0  0  0  0  0  0  0  0  0  0  0
   -0.5752   -7.3047    0.8159 C   0  0  0  0  0  0  0  0  0  0  0  0
    0.3780   -7.8140   -1.3382 C   0  0  0  0  0  0  0  0  0  0  0  0
    1.1919   -5.1596    1.1674 O   0  0  0  0  0  0  0  0  0  0  0  0
   -1.4289   -4.3265    0.4460 O   0  0  0  0  0  0  0  0  0  0  0  0
   -1.8503   -3.0815   -2.8025 C   0  0  0  0  0  0  0  0  0  0  0  0
    1.5010   -3.4443   -1.3469 C   0  0  0  0  0  0  0  0  0  0  0  0
   -0.5097   -1.5429    0.8813 H   0  0  0  0  0  0  0  0  0  0  0  0
   -1.9628   -0.6819    0.3764 H   0  0  0  0  0  0  0  0  0  0  0  0
   -2.6048   -2.6797   -0.8660 H   0  0  0  0  0  0  0  0  0  0  0  0
   -2.4897   -2.3039   -3.2240 H   0  0  0  0  0  0  0  0  0  0  0  0
   -2.3503   -4.0457   -2.9346 H   0  0  0  0  0  0  0  0  0  0  0  0
   -0.9136   -3.0893   -3.3627 H   0  0  0  0  0  0  0  0  0  0  0  0
    1.7525   -2.9170   -0.4271 H   0  0  0  0  0  0  0  0  0  0  0  0
    2.4060   -3.9133   -1.7356 H   0  0  0  0  0  0  0  0  0  0  0  0
    1.1815   -2.7148   -2.0913 H   0  0  0  0  0  0  0  0  0  0  0  0
    1.9899   -5.9051   -0.5061 H   0  0  0  0  0  0  0  0  0  0  0  0
    1.8122   -4.4062    1.0764 H   0  0  0  0  0  0  0  0  0  0  0  0
   -0.7058   -6.7430    1.6224 H   0  0  0  0  0  0  0  0  0  0  0  0
   -1.0541   -8.1741    0.7890 H   0  0  0  0  0  0  0  0  0  0  0  0
    0.9809   -8.6739   -1.0375 H   0  0  0  0  0  0  0  0  0  0  0  0
    0.8774   -7.3307   -2.1795 H   0  0  0  0  0  0  0  0  0  0  0  0
   -0.5924   -8.1681   -1.6937 H   0  0  0  0  0  0  0  0  0  0  0  0
    0.1792   -4.9655   -2.0527 H   0  0  0  0  0  0  0  0  0  0  0  0
  1  7  1  0  0  0  0
  2  8  1  0  0  0  0
  2  1  1  0  0  0  0
  3  2  2  0  0  0  0
  4  5  2  0  0  0  0
  4  3  1  0  0  0  0
  5  6  1  0  0  0  0
  6  1  2  0  0  0  0
  6 12  1  0  0  0  0
  9  3  1  0  0  0  0
 10  4  1  0  0  0  0
 11  5  1  0  0  0  0
 12 26  1  0  0  0  0
 12 25  1  0  0  0  0
 13 12  1  0  0  0  0
 14 13  1  0  0  0  0
 14 27  1  1  0  0  0
 14 15  1  0  0  0  0
 15 22  2  0  0  0  0
 16 41  1  6  0  0  0
 16 15  1  0  0  0  0
 16 17  1  0  0  0  0
 17 34  1  6  0  0  0
 17 21  1  0  0  0  0
 18 17  1  0  0  0  0
 18 19  2  0  0  0  0
 19 36  1  0  0  0  0
 20 38  1  0  0  0  0
 20 18  1  0  0  0  0
 23 14  1  0  0  0  0
 24 16  1  0  0  0  0
 24 31  1  0  0  0  0
 28 23  1  0  0  0  0
 29 23  1  0  0  0  0
 30 23  1  0  0  0  0
 32 24  1  0  0  0  0
 33 24  1  0  0  0  0
 35 21  1  0  0  0  0
 37 19  1  0  0  0  0
 39 20  1  0  0  0  0
 40 20  1  0  0  0  0
M  END
$$$$
