
 OpenBabel11301904163D

 44 47  0  0  1  0  0  0  0  0999 V2000
    6.0059   -8.3999    0.7839 C   0  0  0  0  0  0  0  0  0  0  0  0
    4.9692   -7.4734    1.0187 C   0  0  0  0  0  0  0  0  0  0  0  0
    4.6756   -6.4393    0.0796 C   0  0  0  0  0  0  0  0  0  0  0  0
    5.4977   -6.3582   -1.0765 C   0  0  0  0  0  0  0  0  0  0  0  0
    6.5349   -7.2782   -1.3041 C   0  0  0  0  0  0  0  0  0  0  0  0
    6.7832   -8.3054   -0.3811 C   0  0  0  0  0  0  0  0  0  0  0  0
    4.2438   -7.5938    2.1596 N   0  0  0  0  0  0  0  0  0  0  0  0
    3.2120   -6.7736    2.4610 C   0  0  0  0  0  0  0  0  0  0  0  0
    2.8463   -5.7631    1.5623 C   0  0  0  0  0  0  0  0  0  0  0  0
    3.5700   -5.5740    0.3557 C   0  0  0  0  0  0  0  0  0  0  0  0
    3.1090   -4.4828   -0.5656 C   0  0  1  0  0  0  0  0  0  0  0  0
    4.0082   -3.1984   -0.5281 C   0  0  1  0  0  0  0  0  0  0  0  0
    3.6623   -2.2146   -1.6308 N   0  0  2  0  0  0  0  0  0  0  0  0
    2.2738   -1.6506   -1.4581 C   0  0  0  0  0  0  0  0  0  0  0  0
    2.0882   -1.0484   -0.0153 C   0  0  1  0  0  0  0  0  0  0  0  0
    3.5042   -0.9802    0.6725 C   0  0  2  0  0  0  0  0  0  0  0  0
    4.0005   -2.4526    0.8655 C   0  0  0  0  0  0  0  0  0  0  0  0
    5.0339   -3.5339   -0.7149 H   0  0  0  0  0  0  0  0  0  0  0  0
    2.9573   -4.9907   -1.8914 O   0  0  0  0  0  0  0  0  0  0  0  0
    4.5361   -0.2689   -0.2660 C   0  0  0  0  0  0  0  0  0  0  0  0
    4.6380   -1.0620   -1.6128 C   0  0  0  0  0  0  0  0  0  0  0  0
    1.3547    0.2161   -0.0217 C   0  0  0  0  0  0  0  0  0  0  0  0
    0.0176    0.2879   -0.0780 C   0  0  0  0  0  0  0  0  0  0  0  0
    6.1971   -9.1511    1.4539 H   0  0  0  0  0  0  0  0  0  0  0  0
    5.3629   -5.6356   -1.7796 H   0  0  0  0  0  0  0  0  0  0  0  0
    7.5284   -8.9814   -0.5576 H   0  0  0  0  0  0  0  0  0  0  0  0
    2.6961   -6.8967    3.3339 H   0  0  0  0  0  0  0  0  0  0  0  0
    2.0482   -5.1691    1.8003 H   0  0  0  0  0  0  0  0  0  0  0  0
    2.0970   -4.1838   -0.2832 H   0  0  0  0  0  0  0  0  0  0  0  0
    2.0909   -0.8974   -2.2323 H   0  0  0  0  0  0  0  0  0  0  0  0
    1.5287   -2.4273   -1.6399 H   0  0  0  0  0  0  0  0  0  0  0  0
    1.4888   -1.7556    0.5725 H   0  0  0  0  0  0  0  0  0  0  0  0
    3.4513   -0.4712    1.6402 H   0  0  0  0  0  0  0  0  0  0  0  0
    5.0098   -2.4471    1.2902 H   0  0  0  0  0  0  0  0  0  0  0  0
    3.3565   -2.9533    1.5910 H   0  0  0  0  0  0  0  0  0  0  0  0
    2.5404   -4.2678   -2.4042 H   0  0  0  0  0  0  0  0  0  0  0  0
    4.2271    0.7616   -0.4572 H   0  0  0  0  0  0  0  0  0  0  0  0
    5.5157   -0.2261    0.2189 H   0  0  0  0  0  0  0  0  0  0  0  0
    4.4432   -0.3901   -2.4552 H   0  0  0  0  0  0  0  0  0  0  0  0
    5.6579   -1.4354   -1.7508 H   0  0  0  0  0  0  0  0  0  0  0  0
    1.8610    1.0700   -0.0036 H   0  0  0  0  0  0  0  0  0  0  0  0
   -0.4369    1.1700   -0.0880 H   0  0  0  0  0  0  0  0  0  0  0  0
   -0.5417   -0.5323   -0.1092 H   0  0  0  0  0  0  0  0  0  0  0  0
    7.1046   -7.2000   -2.1478 H   0  0  0  0  0  0  0  0  0  0  0  0
  1  2  1  0  0  0  0
  1 24  1  0  0  0  0
  2  7  2  0  0  0  0
  3 10  2  0  0  0  0
  3  2  1  0  0  0  0
  4  3  1  0  0  0  0
  5  4  2  0  0  0  0
  5  6  1  0  0  0  0
  6  1  2  0  0  0  0
  7  8  1  0  0  0  0
  8 27  1  0  0  0  0
  9 28  1  0  0  0  0
  9  8  2  0  0  0  0
 10  9  1  0  0  0  0
 11 12  1  0  0  0  0
 11 29  1  1  0  0  0
 11 10  1  0  0  0  0
 12 13  1  6  0  0  0
 12 17  1  0  0  0  0
 13 21  1  1  0  0  0
 13 14  1  0  0  0  0
 14 15  1  0  0  0  0
 15 32  1  0  0  0  0
 15 16  1  1  0  0  0
 16 17  1  0  0  0  0
 16 33  1  1  0  0  0
 17 34  1  0  0  0  0
 17 35  1  0  0  0  0
 18 12  1  0  0  0  0
 19 11  1  0  0  0  0
 20 38  1  0  0  0  0
 20 16  1  0  0  0  0
 21 20  1  0  0  0  0
 22 15  1  0  0  0  0
 22 41  1  0  0  0  0
 23 22  2  0  0  0  0
 25  4  1  0  0  0  0
 26  6  1  0  0  0  0
 30 14  1  0  0  0  0
 31 14  1  0  0  0  0
 36 19  1  0  0  0  0
 37 20  1  0  0  0  0
 39 21  1  0  0  0  0
 40 21  1  0  0  0  0
 42 23  1  0  0  0  0
 43 23  1  0  0  0  0
 44  5  1  0  0  0  0
M  END
$$$$
