
 OpenBabel11301904163D

 44 47  0  0  1  0  0  0  0  0999 V2000
    7.6447    3.0029    4.6068 C   0  0  0  0  0  0  0  0  0  0  0  0
    6.4283    2.8055    3.9278 C   0  0  0  0  0  0  0  0  0  0  0  0
    6.3328    1.9208    2.8086 C   0  0  0  0  0  0  0  0  0  0  0  0
    7.5182    1.2374    2.4235 C   0  0  0  0  0  0  0  0  0  0  0  0
    8.7393    1.4535    3.0908 C   0  0  0  0  0  0  0  0  0  0  0  0
    8.8028    2.3351    4.1818 C   0  0  0  0  0  0  0  0  0  0  0  0
    5.3443    3.4884    4.3696 N   0  0  0  0  0  0  0  0  0  0  0  0
    4.1342    3.3805    3.7845 C   0  0  0  0  0  0  0  0  0  0  0  0
    3.9759    2.5487    2.6682 C   0  0  0  0  0  0  0  0  0  0  0  0
    5.0644    1.7947    2.1563 C   0  0  0  0  0  0  0  0  0  0  0  0
    4.7885    0.9269    0.9589 C   0  0  2  0  0  0  0  0  0  0  0  0
    4.5134   -0.5754    1.3126 C   0  0  2  0  0  0  0  0  0  0  0  0
    4.4927   -1.4743    0.0901 N   0  0  1  0  0  0  0  0  0  0  0  0
    3.3020   -1.1915   -0.7969 C   0  0  0  0  0  0  0  0  0  0  0  0
    1.9439   -1.3433   -0.0109 C   0  0  1  0  0  0  0  0  0  0  0  0
    2.2794   -1.8520    1.4378 C   0  0  1  0  0  0  0  0  0  0  0  0
    3.1985   -0.8120    2.1583 C   0  0  0  0  0  0  0  0  0  0  0  0
    5.3656   -0.8890    1.9273 H   0  0  0  0  0  0  0  0  0  0  0  0
    5.8095    1.0715   -0.0276 O   0  0  0  0  0  0  0  0  0  0  0  0
    3.0873   -3.1862    1.3151 C   0  0  0  0  0  0  0  0  0  0  0  0
    4.4204   -2.9124    0.5383 C   0  0  0  0  0  0  0  0  0  0  0  0
    1.1280   -0.1249   -0.0047 C   0  0  0  0  0  0  0  0  0  0  0  0
   -0.2109   -0.1145    0.0003 C   0  0  0  0  0  0  0  0  0  0  0  0
    7.6926    3.6348    5.4101 H   0  0  0  0  0  0  0  0  0  0  0  0
    7.5240    0.5684    1.6549 H   0  0  0  0  0  0  0  0  0  0  0  0
    9.6886    2.4916    4.6680 H   0  0  0  0  0  0  0  0  0  0  0  0
    3.3434    3.9069    4.1592 H   0  0  0  0  0  0  0  0  0  0  0  0
    3.0506    2.4999    2.2383 H   0  0  0  0  0  0  0  0  0  0  0  0
    3.9049    1.3125    0.4505 H   0  0  0  0  0  0  0  0  0  0  0  0
    3.4052   -0.2063   -1.2574 H   0  0  0  0  0  0  0  0  0  0  0  0
    3.3057   -1.8961   -1.6343 H   0  0  0  0  0  0  0  0  0  0  0  0
    1.3643   -2.1291   -0.5102 H   0  0  0  0  0  0  0  0  0  0  0  0
    1.3647   -2.0222    2.0139 H   0  0  0  0  0  0  0  0  0  0  0  0
    2.6318    0.1073    2.3035 H   0  0  0  0  0  0  0  0  0  0  0  0
    3.4514   -1.1843    3.1555 H   0  0  0  0  0  0  0  0  0  0  0  0
    5.4711    0.6249   -0.8319 H   0  0  0  0  0  0  0  0  0  0  0  0
    3.2966   -3.5864    2.3106 H   0  0  0  0  0  0  0  0  0  0  0  0
    2.4944   -3.9360    0.7847 H   0  0  0  0  0  0  0  0  0  0  0  0
    4.4945   -3.5709   -0.3310 H   0  0  0  0  0  0  0  0  0  0  0  0
    5.2781   -3.1528    1.1737 H   0  0  0  0  0  0  0  0  0  0  0  0
    1.5851    0.7567    0.0149 H   0  0  0  0  0  0  0  0  0  0  0  0
   -0.7014    0.7491    0.0187 H   0  0  0  0  0  0  0  0  0  0  0  0
   -0.7324   -0.9579   -0.0119 H   0  0  0  0  0  0  0  0  0  0  0  0
    9.5844    0.9666    2.7820 H   0  0  0  0  0  0  0  0  0  0  0  0
  1 24  1  0  0  0  0
  2  7  1  0  0  0  0
  2  1  2  0  0  0  0
  3  2  1  0  0  0  0
  4  3  2  0  0  0  0
  4  5  1  0  0  0  0
  5  6  2  0  0  0  0
  6  1  1  0  0  0  0
  6 26  1  0  0  0  0
  8 27  1  0  0  0  0
  8  7  2  0  0  0  0
  9  8  1  0  0  0  0
 10  9  2  0  0  0  0
 10  3  1  0  0  0  0
 11 29  1  6  0  0  0
 11 12  1  0  0  0  0
 11 10  1  0  0  0  0
 12 13  1  6  0  0  0
 12 18  1  0  0  0  0
 12 17  1  0  0  0  0
 13 14  1  6  0  0  0
 13 21  1  0  0  0  0
 14 15  1  0  0  0  0
 15 22  1  0  0  0  0
 15 16  1  1  0  0  0
 16 33  1  1  0  0  0
 16 17  1  0  0  0  0
 17 34  1  0  0  0  0
 17 35  1  0  0  0  0
 19 11  1  0  0  0  0
 20 16  1  0  0  0  0
 20 37  1  0  0  0  0
 21 40  1  0  0  0  0
 21 20  1  0  0  0  0
 22 23  2  0  0  0  0
 22 41  1  0  0  0  0
 23 42  1  0  0  0  0
 25  4  1  0  0  0  0
 28  9  1  0  0  0  0
 30 14  1  0  0  0  0
 31 14  1  0  0  0  0
 32 15  1  0  0  0  0
 36 19  1  0  0  0  0
 38 20  1  0  0  0  0
 39 21  1  0  0  0  0
 43 23  1  0  0  0  0
 44  5  1  0  0  0  0
M  END
$$$$
