
 OpenBabel11301904163D

 44 47  0  0  1  0  0  0  0  0999 V2000
    5.6150   -7.6506   -3.8331 C   0  0  0  0  0  0  0  0  0  0  0  0
    5.7992   -6.2792   -3.5727 C   0  0  0  0  0  0  0  0  0  0  0  0
    5.5749   -5.7268   -2.2740 C   0  0  0  0  0  0  0  0  0  0  0  0
    5.1001   -6.6167   -1.2731 C   0  0  0  0  0  0  0  0  0  0  0  0
    4.9371   -7.9918   -1.5281 C   0  0  0  0  0  0  0  0  0  0  0  0
    5.1958   -8.5102   -2.8060 C   0  0  0  0  0  0  0  0  0  0  0  0
    6.2063   -5.4902   -4.5954 N   0  0  0  0  0  0  0  0  0  0  0  0
    6.4373   -4.1697   -4.4482 C   0  0  0  0  0  0  0  0  0  0  0  0
    6.2729   -3.5712   -3.1907 C   0  0  0  0  0  0  0  0  0  0  0  0
    5.8480   -4.3339   -2.0709 C   0  0  0  0  0  0  0  0  0  0  0  0
    5.7261   -3.6137   -0.7513 C   0  0  1  0  0  0  0  0  0  0  0  0
    4.2852   -3.0496   -0.4992 C   0  0  2  0  0  0  0  0  0  0  0  0
    3.8422   -2.0473   -1.5523 N   0  0  2  0  0  0  0  0  0  0  0  0
    2.3635   -1.7853   -1.4058 C   0  0  0  0  0  0  0  0  0  0  0  0
    2.0288   -1.1944    0.0178 C   0  0  1  0  0  0  0  0  0  0  0  0
    3.3775   -1.0253    0.8145 C   0  0  2  0  0  0  0  0  0  0  0  0
    4.0679   -2.4259    0.9338 C   0  0  0  0  0  0  0  0  0  0  0  0
    3.6291   -3.9261   -0.5687 H   0  0  0  0  0  0  0  0  0  0  0  0
    6.1783   -4.4311    0.3322 O   0  0  0  0  0  0  0  0  0  0  0  0
    4.3703   -0.1208    0.0146 C   0  0  0  0  0  0  0  0  0  0  0  0
    4.5534   -0.7197   -1.4172 C   0  0  0  0  0  0  0  0  0  0  0  0
    1.2297    0.0331   -0.0626 C   0  0  0  0  0  0  0  0  0  0  0  0
   -0.1090    0.0514   -0.0463 C   0  0  0  0  0  0  0  0  0  0  0  0
    5.7898   -8.0304   -4.7668 H   0  0  0  0  0  0  0  0  0  0  0  0
    4.8562   -6.2910   -0.3391 H   0  0  0  0  0  0  0  0  0  0  0  0
    5.0738   -9.5096   -2.9887 H   0  0  0  0  0  0  0  0  0  0  0  0
    6.7376   -3.6195   -5.2544 H   0  0  0  0  0  0  0  0  0  0  0  0
    6.4727   -2.5728   -3.1091 H   0  0  0  0  0  0  0  0  0  0  0  0
    6.4303   -2.7796   -0.7244 H   0  0  0  0  0  0  0  0  0  0  0  0
    2.0412   -1.1140   -2.2096 H   0  0  0  0  0  0  0  0  0  0  0  0
    1.8073   -2.7149   -1.5605 H   0  0  0  0  0  0  0  0  0  0  0  0
    1.4397   -1.9411    0.5639 H   0  0  0  0  0  0  0  0  0  0  0  0
    3.1971   -0.6173    1.8139 H   0  0  0  0  0  0  0  0  0  0  0  0
    5.0156   -2.3012    1.4654 H   0  0  0  0  0  0  0  0  0  0  0  0
    3.4518   -3.0970    1.5402 H   0  0  0  0  0  0  0  0  0  0  0  0
    6.0954   -3.8827    1.1409 H   0  0  0  0  0  0  0  0  0  0  0  0
    3.9967    0.9014   -0.0420 H   0  0  0  0  0  0  0  0  0  0  0  0
    5.3331   -0.0714    0.5341 H   0  0  0  0  0  0  0  0  0  0  0  0
    4.1614   -0.0130   -2.1544 H   0  0  0  0  0  0  0  0  0  0  0  0
    5.6150   -0.8253   -1.6382 H   0  0  0  0  0  0  0  0  0  0  0  0
    1.6915    0.9072   -0.1576 H   0  0  0  0  0  0  0  0  0  0  0  0
   -0.5984    0.9118   -0.1210 H   0  0  0  0  0  0  0  0  0  0  0  0
   -0.6335   -0.7864    0.0318 H   0  0  0  0  0  0  0  0  0  0  0  0
    4.6264   -8.6199   -0.7829 H   0  0  0  0  0  0  0  0  0  0  0  0
  1  2  2  0  0  0  0
  1  6  1  0  0  0  0
  2  3  1  0  0  0  0
  3 10  1  0  0  0  0
  3  4  2  0  0  0  0
  4 25  1  0  0  0  0
  5  4  1  0  0  0  0
  5 44  1  0  0  0  0
  6  5  2  0  0  0  0
  7  8  2  0  0  0  0
  7  2  1  0  0  0  0
  8  9  1  0  0  0  0
  9 28  1  0  0  0  0
  9 10  2  0  0  0  0
 10 11  1  0  0  0  0
 11 29  1  6  0  0  0
 11 12  1  0  0  0  0
 11 19  1  0  0  0  0
 12 13  1  6  0  0  0
 12 17  1  0  0  0  0
 13 21  1  1  0  0  0
 13 14  1  0  0  0  0
 14 15  1  0  0  0  0
 15 32  1  0  0  0  0
 15 16  1  1  0  0  0
 16 17  1  0  0  0  0
 16 33  1  1  0  0  0
 17 34  1  0  0  0  0
 17 35  1  0  0  0  0
 18 12  1  0  0  0  0
 19 36  1  0  0  0  0
 20 38  1  0  0  0  0
 20 16  1  0  0  0  0
 21 20  1  0  0  0  0
 22 23  2  0  0  0  0
 22 15  1  0  0  0  0
 23 43  1  0  0  0  0
 24  1  1  0  0  0  0
 26  6  1  0  0  0  0
 27  8  1  0  0  0  0
 30 14  1  0  0  0  0
 31 14  1  0  0  0  0
 37 20  1  0  0  0  0
 39 21  1  0  0  0  0
 40 21  1  0  0  0  0
 41 22  1  0  0  0  0
 42 23  1  0  0  0  0
M  END
$$$$
