
 OpenBabel11301904163D

 44 47  0  0  1  0  0  0  0  0999 V2000
    5.6707   -7.6342   -3.8408 C   0  0  0  0  0  0  0  0  0  0  0  0
    4.6693   -6.6858   -3.5535 C   0  0  0  0  0  0  0  0  0  0  0  0
    4.5400   -6.1026   -2.2547 C   0  0  0  0  0  0  0  0  0  0  0  0
    5.4987   -6.4938   -1.2830 C   0  0  0  0  0  0  0  0  0  0  0  0
    6.4870   -7.4570   -1.5634 C   0  0  0  0  0  0  0  0  0  0  0  0
    6.5720   -8.0268   -2.8422 C   0  0  0  0  0  0  0  0  0  0  0  0
    3.8180   -6.3483   -4.5501 N   0  0  0  0  0  0  0  0  0  0  0  0
    2.8046   -5.4735   -4.3741 C   0  0  0  0  0  0  0  0  0  0  0  0
    2.5995   -4.8910   -3.1152 C   0  0  0  0  0  0  0  0  0  0  0  0
    3.4616   -5.1839   -2.0253 C   0  0  0  0  0  0  0  0  0  0  0  0
    3.1640   -4.5010   -0.7132 C   0  0  2  0  0  0  0  0  0  0  0  0
    3.9923   -3.1817   -0.5181 C   0  0  1  0  0  0  0  0  0  0  0  0
    3.7098   -2.1305   -1.5807 N   0  0  2  0  0  0  0  0  0  0  0  0
    2.3243   -1.5317   -1.4523 C   0  0  0  0  0  0  0  0  0  0  0  0
    2.0440   -1.0392    0.0146 C   0  0  1  0  0  0  0  0  0  0  0  0
    3.4212   -1.0235    0.7764 C   0  0  2  0  0  0  0  0  0  0  0  0
    3.8724   -2.5172    0.9109 C   0  0  0  0  0  0  0  0  0  0  0  0
    5.0375   -3.4934   -0.6310 H   0  0  0  0  0  0  0  0  0  0  0  0
    3.3159   -5.4037    0.3846 O   0  0  0  0  0  0  0  0  0  0  0  0
    4.5035   -0.2668   -0.0678 C   0  0  0  0  0  0  0  0  0  0  0  0
    4.7065   -1.0070   -1.4336 C   0  0  0  0  0  0  0  0  0  0  0  0
    1.2920    0.2155    0.0885 C   0  0  0  0  0  0  0  0  0  0  0  0
   -0.0465    0.2754    0.0345 C   0  0  0  0  0  0  0  0  0  0  0  0
    5.7436   -8.0479   -4.7733 H   0  0  0  0  0  0  0  0  0  0  0  0
    5.5027   -6.0891   -0.3503 H   0  0  0  0  0  0  0  0  0  0  0  0
    7.2899   -8.7246   -3.0459 H   0  0  0  0  0  0  0  0  0  0  0  0
    2.1875   -5.2467   -5.1566 H   0  0  0  0  0  0  0  0  0  0  0  0
    1.8101   -4.2506   -3.0102 H   0  0  0  0  0  0  0  0  0  0  0  0
    2.1030   -4.2453   -0.6674 H   0  0  0  0  0  0  0  0  0  0  0  0
    2.2207   -0.7054   -2.1650 H   0  0  0  0  0  0  0  0  0  0  0  0
    1.5676   -2.2571   -1.7468 H   0  0  0  0  0  0  0  0  0  0  0  0
    1.4199   -1.7983    0.5019 H   0  0  0  0  0  0  0  0  0  0  0  0
    3.3241   -0.5698    1.7679 H   0  0  0  0  0  0  0  0  0  0  0  0
    4.8344   -2.5662    1.4278 H   0  0  0  0  0  0  0  0  0  0  0  0
    3.1550   -3.0404    1.5448 H   0  0  0  0  0  0  0  0  0  0  0  0
    2.9319   -4.9422    1.1587 H   0  0  0  0  0  0  0  0  0  0  0  0
    4.1791    0.7617   -0.2497 H   0  0  0  0  0  0  0  0  0  0  0  0
    5.4480   -0.2188    0.4827 H   0  0  0  0  0  0  0  0  0  0  0  0
    4.5996   -0.2995   -2.2629 H   0  0  0  0  0  0  0  0  0  0  0  0
    5.7268   -1.4016   -1.4937 H   0  0  0  0  0  0  0  0  0  0  0  0
    1.7875    1.0715    0.1819 H   0  0  0  0  0  0  0  0  0  0  0  0
   -0.5137    1.1488    0.0992 H   0  0  0  0  0  0  0  0  0  0  0  0
   -0.5963   -0.5462   -0.0653 H   0  0  0  0  0  0  0  0  0  0  0  0
    7.1478   -7.7454   -0.8377 H   0  0  0  0  0  0  0  0  0  0  0  0
  1  2  2  0  0  0  0
  1  6  1  0  0  0  0
  2  3  1  0  0  0  0
  3 10  1  0  0  0  0
  3  4  2  0  0  0  0
  4 25  1  0  0  0  0
  5  4  1  0  0  0  0
  5 44  1  0  0  0  0
  6  5  2  0  0  0  0
  7  8  2  0  0  0  0
  7  2  1  0  0  0  0
  8  9  1  0  0  0  0
  9 28  1  0  0  0  0
  9 10  2  0  0  0  0
 10 11  1  0  0  0  0
 11 29  1  6  0  0  0
 11 12  1  0  0  0  0
 11 19  1  0  0  0  0
 12 13  1  6  0  0  0
 12 17  1  0  0  0  0
 13 14  1  1  0  0  0
 13 21  1  0  0  0  0
 14 15  1  0  0  0  0
 15 22  1  0  0  0  0
 15 32  1  0  0  0  0
 15 16  1  1  0  0  0
 16 17  1  0  0  0  0
 16 33  1  1  0  0  0
 17 34  1  0  0  0  0
 17 35  1  0  0  0  0
 18 12  1  0  0  0  0
 19 36  1  0  0  0  0
 20 38  1  0  0  0  0
 20 16  1  0  0  0  0
 21 20  1  0  0  0  0
 22 41  1  0  0  0  0
 23 22  2  0  0  0  0
 23 42  1  0  0  0  0
 24  1  1  0  0  0  0
 26  6  1  0  0  0  0
 27  8  1  0  0  0  0
 30 14  1  0  0  0  0
 31 14  1  0  0  0  0
 37 20  1  0  0  0  0
 39 21  1  0  0  0  0
 40 21  1  0  0  0  0
 43 23  1  0  0  0  0
M  END
$$$$
