Displayed atoms
                    3D
 Structure written by MMmdl.
 43 46  0  0  1  0            999 V2000
   -1.7895    1.1638   -0.1203 C   0  0  0  0  0  0
   -0.5182    0.7359   -0.7090 N   0  0  0  0  0  0
    0.1956    1.8663   -1.3357 C   0  0  2  0  0  0
   -0.6756    2.5182   -2.4334 C   0  0  0  0  0  0
   -2.0327    2.9596   -1.8764 C   0  0  0  0  0  0
   -2.7071    1.7639   -1.1969 C   0  0  0  0  0  0
    0.2917    0.0832    0.3317 C   0  0  0  0  0  0
    1.7314   -0.2856   -0.1277 C   0  0  1  0  0  0
    1.5653    1.3774   -1.8756 C   0  0  2  0  0  0
    1.4076    0.2162   -2.9041 C   0  0  0  0  0  0
    1.8753   -1.4568   -1.1479 C   0  0  2  0  0  0
    2.1333   -1.0074   -2.5380 N   0  0  0  0  0  0
    0.7942   -2.5553   -1.0821 C   0  0  0  0  0  0
    1.2215   -3.8019   -1.8835 C   0  0  0  0  0  0
    2.1827   -3.4428   -3.0332 C   0  0  0  0  0  0
    1.8885   -2.0318   -3.5636 C   0  0  0  0  0  0
    2.4211    0.9633   -0.6741 C   0  0  0  0  0  0
    2.8081   -1.9477   -0.8668 H   0  0  0  0  0  0
    0.3796    2.6216   -0.5694 H   0  0  0  0  0  0
   -1.6135    1.8940    0.6714 H   0  0  0  0  0  0
   -2.2868    0.3079    0.3384 H   0  0  0  0  0  0
   -0.8404    1.8238   -3.2571 H   0  0  0  0  0  0
   -0.1558    3.3777   -2.8579 H   0  0  0  0  0  0
   -2.6630    3.3513   -2.6751 H   0  0  0  0  0  0
   -1.8938    3.7666   -1.1561 H   0  0  0  0  0  0
   -2.9504    1.0020   -1.9391 H   0  0  0  0  0  0
   -3.6523    2.0739   -0.7498 H   0  0  0  0  0  0
    0.3736    0.7595    1.1841 H   0  0  0  0  0  0
   -0.2283   -0.8008    0.7008 H   0  0  0  0  0  0
    2.2640   -0.5970    0.7717 H   0  0  0  0  0  0
    2.0629    2.2128   -2.3687 H   0  0  0  0  0  0
    1.7437    0.5532   -3.8852 H   0  0  0  0  0  0
    0.3534   -0.0387   -3.0182 H   0  0  0  0  0  0
   -0.1445   -2.1600   -1.4741 H   0  0  0  0  0  0
    0.5984   -2.8431   -0.0492 H   0  0  0  0  0  0
    0.3314   -4.2955   -2.2748 H   0  0  0  0  0  0
    1.7090   -4.5221   -1.2261 H   0  0  0  0  0  0
    2.0942   -4.1763   -3.8348 H   0  0  0  0  0  0
    3.2176   -3.4907   -2.6906 H   0  0  0  0  0  0
    0.8473   -2.0023   -3.8904 H   0  0  0  0  0  0
    2.4982   -1.8119   -4.4408 H   0  0  0  0  0  0
    2.4676    1.7535    0.0751 H   0  0  0  0  0  0
    3.4463    0.7450   -0.9758 H   0  0  0  0  0  0
  1  2  1  0  0  0
  1  6  1  0  0  0
  1 20  1  0  0  0
  1 21  1  0  0  0
  2  3  1  0  0  0
  2  7  1  0  0  0
  3  4  1  0  0  0
  3  9  1  0  0  0
  3 19  1  0  0  0
  4  5  1  0  0  0
  4 22  1  0  0  0
  4 23  1  0  0  0
  5  6  1  0  0  0
  5 24  1  0  0  0
  5 25  1  0  0  0
  6 26  1  0  0  0
  6 27  1  0  0  0
  7  8  1  0  0  0
  7 28  1  0  0  0
  7 29  1  0  0  0
  8 11  1  0  0  0
  8 17  1  0  0  0
  8 30  1  0  0  0
  9 10  1  0  0  0
  9 17  1  0  0  0
  9 31  1  0  0  0
 10 12  1  0  0  0
 10 32  1  0  0  0
 10 33  1  0  0  0
 11 12  1  0  0  0
 11 13  1  0  0  0
 11 18  1  0  0  0
 12 16  1  0  0  0
 13 14  1  0  0  0
 13 34  1  0  0  0
 13 35  1  0  0  0
 14 15  1  0  0  0
 14 36  1  0  0  0
 14 37  1  0  0  0
 15 16  1  0  0  0
 15 38  1  0  0  0
 15 39  1  0  0  0
 16 40  1  0  0  0
 16 41  1  0  0  0
 17 42  1  0  0  0
 17 43  1  0  0  0
M  END
$$$$
