Displayed atoms
                    3D
 Structure written by MMmdl.
 43 46  0  0  1  0            999 V2000
   -1.7822    1.0540    0.5430 C   0  0  0  0  0  0
   -0.6181    0.2553    0.1503 N   0  0  0  0  0  0
    0.4035    1.0878   -0.5178 C   0  0  2  0  0  0
   -0.1866    1.7668   -1.7741 C   0  0  0  0  0  0
   -1.4294    2.5925   -1.4262 C   0  0  0  0  0  0
   -2.4334    1.7008   -0.6892 C   0  0  0  0  0  0
   -0.0866   -0.4208    1.3455 C   0  0  0  0  0  0
    1.2205   -1.2031    1.0621 C   0  0  1  0  0  0
    1.6634    0.2369   -0.8335 C   0  0  2  0  0  0
    1.3663   -0.9706   -1.7748 C   0  0  0  0  0  0
    0.9961   -2.4247    0.1142 C   0  0  1  0  0  0
    1.7179   -2.2600   -1.1657 N   0  0  0  0  0  0
    1.4572   -3.7440    0.7695 C   0  0  0  0  0  0
    1.2136   -4.9445   -0.1538 C   0  0  0  0  0  0
    1.8691   -4.6833   -1.5142 C   0  0  0  0  0  0
    1.3965   -3.3425   -2.0966 C   0  0  0  0  0  0
    2.2597   -0.2295    0.4987 C   0  0  0  0  0  0
   -0.0715   -2.5017   -0.1025 H   0  0  0  0  0  0
    0.6985    1.8791    0.1740 H   0  0  0  0  0  0
   -1.4897    1.8234    1.2598 H   0  0  0  0  0  0
   -2.5135    0.4159    1.0416 H   0  0  0  0  0  0
   -0.4552    1.0228   -2.5237 H   0  0  0  0  0  0
    0.5636    2.4095   -2.2358 H   0  0  0  0  0  0
   -1.8771    3.0065   -2.3299 H   0  0  0  0  0  0
   -1.1492    3.4365   -0.7948 H   0  0  0  0  0  0
   -2.8034    0.9233   -1.3589 H   0  0  0  0  0  0
   -3.3010    2.2877   -0.3866 H   0  0  0  0  0  0
    0.1088    0.3199    2.1228 H   0  0  0  0  0  0
   -0.8407   -1.0999    1.7459 H   0  0  0  0  0  0
    1.5914   -1.5643    2.0220 H   0  0  0  0  0  0
    2.3980    0.8759   -1.3222 H   0  0  0  0  0  0
    1.9216   -0.8471   -2.7052 H   0  0  0  0  0  0
    0.3099   -0.9923   -2.0457 H   0  0  0  0  0  0
    0.9302   -3.8974    1.7116 H   0  0  0  0  0  0
    2.5186   -3.6792    1.0144 H   0  0  0  0  0  0
    0.1416   -5.0958   -0.2843 H   0  0  0  0  0  0
    1.6119   -5.8559    0.2925 H   0  0  0  0  0  0
    1.6352   -5.4936   -2.2050 H   0  0  0  0  0  0
    2.9547   -4.6708   -1.4067 H   0  0  0  0  0  0
    0.3234   -3.3683   -2.2955 H   0  0  0  0  0  0
    1.8959   -3.1678   -3.0509 H   0  0  0  0  0  0
    2.4319    0.6073    1.1756 H   0  0  0  0  0  0
    3.2210   -0.7236    0.3512 H   0  0  0  0  0  0
  1  2  1  0  0  0
  1  6  1  0  0  0
  1 20  1  0  0  0
  1 21  1  0  0  0
  2  3  1  0  0  0
  2  7  1  0  0  0
  3  4  1  0  0  0
  3  9  1  0  0  0
  3 19  1  0  0  0
  4  5  1  0  0  0
  4 22  1  0  0  0
  4 23  1  0  0  0
  5  6  1  0  0  0
  5 24  1  0  0  0
  5 25  1  0  0  0
  6 26  1  0  0  0
  6 27  1  0  0  0
  7  8  1  0  0  0
  7 28  1  0  0  0
  7 29  1  0  0  0
  8 11  1  0  0  0
  8 17  1  0  0  0
  8 30  1  0  0  0
  9 10  1  0  0  0
  9 17  1  0  0  0
  9 31  1  0  0  0
 10 12  1  0  0  0
 10 32  1  0  0  0
 10 33  1  0  0  0
 11 12  1  0  0  0
 11 13  1  0  0  0
 11 18  1  0  0  0
 12 16  1  0  0  0
 13 14  1  0  0  0
 13 34  1  0  0  0
 13 35  1  0  0  0
 14 15  1  0  0  0
 14 36  1  0  0  0
 14 37  1  0  0  0
 15 16  1  0  0  0
 15 38  1  0  0  0
 15 39  1  0  0  0
 16 40  1  0  0  0
 16 41  1  0  0  0
 17 42  1  0  0  0
 17 43  1  0  0  0
M  END
$$$$
