
 OpenBabel11301903583D

 41 42  0  0  1  0  0  0  0  0999 V2000
    1.5168    2.3113    3.3176 C   0  0  1  0  0  0  0  0  0  0  0  0
    1.3859    1.2788    2.1407 C   0  0  2  0  0  0  0  0  0  0  0  0
    2.6843    0.4463    2.3715 C   0  0  0  0  0  0  0  0  0  0  0  0
    2.8875    0.3670    3.8997 C   0  0  0  0  0  0  0  0  0  0  0  0
    1.9974    1.4688    4.5515 C   0  0  1  0  0  0  0  0  0  0  0  0
    1.3502    1.9551    0.7962 C   0  0  0  0  0  0  0  0  0  0  0  0
    0.3124    2.9516    0.4292 C   0  0  0  0  0  0  0  0  0  0  0  0
    0.3350    4.2184    1.3249 C   0  0  0  0  0  0  0  0  0  0  0  0
   -0.2128    4.0150    2.6743 C   0  0  0  0  0  0  0  0  0  0  0  0
    0.3162    3.1210    3.5411 C   0  0  0  0  0  0  0  0  0  0  0  0
   -1.3767    4.8003    3.0973 C   0  0  0  0  0  0  0  0  0  0  0  0
   -2.5699    4.0783    2.8198 O   0  0  0  0  0  0  0  0  0  0  0  0
    2.2039    1.6806   -0.0830 O   0  0  0  0  0  0  0  0  0  0  0  0
    2.3312    3.0110    3.0885 H   0  0  0  0  0  0  0  0  0  0  0  0
    0.1396    0.3245    2.2483 C   0  0  0  0  0  0  0  0  0  0  0  0
    2.7112    2.2246    5.7410 C   0  0  0  0  0  0  0  0  0  0  0  0
    1.8822    3.3967    6.3444 C   0  0  0  0  0  0  0  0  0  0  0  0
    3.0806    1.2465    6.9007 C   0  0  0  0  0  0  0  0  0  0  0  0
    3.5527    0.9579    1.9411 H   0  0  0  0  0  0  0  0  0  0  0  0
    2.6308   -0.5490    1.9199 H   0  0  0  0  0  0  0  0  0  0  0  0
    3.9481    0.5140    4.1218 H   0  0  0  0  0  0  0  0  0  0  0  0
    2.5974   -0.6218    4.2676 H   0  0  0  0  0  0  0  0  0  0  0  0
    1.1178    0.9740    4.9780 H   0  0  0  0  0  0  0  0  0  0  0  0
   -0.6752    2.4868    0.4616 H   0  0  0  0  0  0  0  0  0  0  0  0
    0.4639    3.2681   -0.6083 H   0  0  0  0  0  0  0  0  0  0  0  0
    1.3532    4.6081    1.3992 H   0  0  0  0  0  0  0  0  0  0  0  0
   -0.2367    4.9781    0.7872 H   0  0  0  0  0  0  0  0  0  0  0  0
   -0.1400    3.0012    4.4147 H   0  0  0  0  0  0  0  0  0  0  0  0
   -1.3467    5.0209    4.1693 H   0  0  0  0  0  0  0  0  0  0  0  0
   -1.4214    5.7629    2.5808 H   0  0  0  0  0  0  0  0  0  0  0  0
   -3.2869    4.6388    3.1855 H   0  0  0  0  0  0  0  0  0  0  0  0
    0.0975   -0.3449    1.3866 H   0  0  0  0  0  0  0  0  0  0  0  0
   -0.7968    0.8820    2.2790 H   0  0  0  0  0  0  0  0  0  0  0  0
    0.1802   -0.3012    3.1419 H   0  0  0  0  0  0  0  0  0  0  0  0
    3.6436    2.6566    5.3630 H   0  0  0  0  0  0  0  0  0  0  0  0
    0.8953    3.0499    6.6531 H   0  0  0  0  0  0  0  0  0  0  0  0
    2.3774    3.8201    7.2216 H   0  0  0  0  0  0  0  0  0  0  0  0
    1.7647    4.2021    5.6202 H   0  0  0  0  0  0  0  0  0  0  0  0
    2.1835    0.7699    7.3027 H   0  0  0  0  0  0  0  0  0  0  0  0
    3.7615    0.4659    6.5608 H   0  0  0  0  0  0  0  0  0  0  0  0
    3.5780    1.7799    7.7142 H   0  0  0  0  0  0  0  0  0  0  0  0
  1  2  1  6  0  0  0
  1 10  1  0  0  0  0
  2 15  1  1  0  0  0
  2  3  1  0  0  0  0
  3  4  1  0  0  0  0
  4 21  1  0  0  0  0
  4 22  1  0  0  0  0
  4  5  1  0  0  0  0
  5  1  1  6  0  0  0
  5 23  1  0  0  0  0
  5 16  1  0  0  0  0
  6  2  1  0  0  0  0
  7 24  1  0  0  0  0
  7  6  1  0  0  0  0
  7  8  1  0  0  0  0
  8 26  1  0  0  0  0
  8  9  1  0  0  0  0
  9 11  1  0  0  0  0
  9 10  2  0  0  0  0
 10 28  1  0  0  0  0
 11 29  1  0  0  0  0
 12 11  1  0  0  0  0
 12 31  1  0  0  0  0
 13  6  2  0  0  0  0
 14  1  1  0  0  0  0
 15 33  1  0  0  0  0
 15 34  1  0  0  0  0
 16 17  1  0  0  0  0
 16 18  1  0  0  0  0
 17 36  1  0  0  0  0
 17 37  1  0  0  0  0
 18 39  1  0  0  0  0
 18 41  1  0  0  0  0
 19  3  1  0  0  0  0
 20  3  1  0  0  0  0
 25  7  1  0  0  0  0
 27  8  1  0  0  0  0
 30 11  1  0  0  0  0
 32 15  1  0  0  0  0
 35 16  1  0  0  0  0
 38 17  1  0  0  0  0
 40 18  1  0  0  0  0
M  END
$$$$
