
 OpenBabel11301903583D

 41 42  0  0  1  0  0  0  0  0999 V2000
    3.6866   -0.9411    3.5580 C   0  0  2  0  0  0  0  0  0  0  0  0
    2.4377   -0.2590    2.8909 C   0  0  1  0  0  0  0  0  0  0  0  0
    2.2420    1.0108    3.8088 C   0  0  0  0  0  0  0  0  0  0  0  0
    3.2275    0.9037    4.9971 C   0  0  0  0  0  0  0  0  0  0  0  0
    3.6374   -0.5961    5.0948 C   0  0  1  0  0  0  0  0  0  0  0  0
    2.7199    0.0662    1.4424 C   0  0  0  0  0  0  0  0  0  0  0  0
    3.0745   -0.9692    0.4357 C   0  0  0  0  0  0  0  0  0  0  0  0
    4.3991   -1.7105    0.7547 C   0  0  0  0  0  0  0  0  0  0  0  0
    4.3011   -2.6845    1.8532 C   0  0  0  0  0  0  0  0  0  0  0  0
    3.9972   -2.3082    3.1191 C   0  0  0  0  0  0  0  0  0  0  0  0
    4.5220   -4.1090    1.5747 C   0  0  0  0  0  0  0  0  0  0  0  0
    3.2740   -4.7930    1.5483 O   0  0  0  0  0  0  0  0  0  0  0  0
    2.6573    1.2473    1.0193 O   0  0  0  0  0  0  0  0  0  0  0  0
    4.5725   -0.3860    3.2145 H   0  0  0  0  0  0  0  0  0  0  0  0
    1.1444   -1.1504    2.9312 C   0  0  0  0  0  0  0  0  0  0  0  0
    2.7208   -1.3547    6.1493 C   0  0  0  0  0  0  0  0  0  0  0  0
    2.6359   -2.9014    6.0319 C   0  0  0  0  0  0  0  0  0  0  0  0
    3.1592   -1.0116    7.6106 C   0  0  0  0  0  0  0  0  0  0  0  0
    2.4372    1.9574    3.2969 H   0  0  0  0  0  0  0  0  0  0  0  0
    1.2191    1.0787    4.1938 H   0  0  0  0  0  0  0  0  0  0  0  0
    4.1149    1.5143    4.7953 H   0  0  0  0  0  0  0  0  0  0  0  0
    2.7685    1.2996    5.9060 H   0  0  0  0  0  0  0  0  0  0  0  0
    4.6669   -0.6571    5.4674 H   0  0  0  0  0  0  0  0  0  0  0  0
    3.1902   -0.4981   -0.5443 H   0  0  0  0  0  0  0  0  0  0  0  0
    2.2576   -1.6869    0.3370 H   0  0  0  0  0  0  0  0  0  0  0  0
    5.1810   -0.9822    0.9858 H   0  0  0  0  0  0  0  0  0  0  0  0
    4.7184   -2.1959   -0.1715 H   0  0  0  0  0  0  0  0  0  0  0  0
    3.9959   -3.0151    3.8032 H   0  0  0  0  0  0  0  0  0  0  0  0
    5.0102   -4.2773    0.6135 H   0  0  0  0  0  0  0  0  0  0  0  0
    5.1652   -4.5589    2.3347 H   0  0  0  0  0  0  0  0  0  0  0  0
    3.5048   -5.7171    1.3146 H   0  0  0  0  0  0  0  0  0  0  0  0
    0.3283   -0.6621    2.3934 H   0  0  0  0  0  0  0  0  0  0  0  0
    0.8014   -1.3232    3.9477 H   0  0  0  0  0  0  0  0  0  0  0  0
    1.3099   -2.1275    2.4763 H   0  0  0  0  0  0  0  0  0  0  0  0
    1.6937   -0.9944    6.0510 H   0  0  0  0  0  0  0  0  0  0  0  0
    3.6338   -3.3452    6.0702 H   0  0  0  0  0  0  0  0  0  0  0  0
    2.0432   -3.3258    6.8476 H   0  0  0  0  0  0  0  0  0  0  0  0
    2.1340   -3.1829    5.1054 H   0  0  0  0  0  0  0  0  0  0  0  0
    4.1757   -1.3637    7.8038 H   0  0  0  0  0  0  0  0  0  0  0  0
    3.1323    0.0616    7.7933 H   0  0  0  0  0  0  0  0  0  0  0  0
    2.4917   -1.4770    8.3411 H   0  0  0  0  0  0  0  0  0  0  0  0
  1  2  1  6  0  0  0
  2 15  1  1  0  0  0
  2  3  1  0  0  0  0
  3 20  1  0  0  0  0
  3  4  1  0  0  0  0
  4  5  1  0  0  0  0
  4 22  1  0  0  0  0
  5  1  1  6  0  0  0
  5 23  1  0  0  0  0
  5 16  1  0  0  0  0
  6  2  1  0  0  0  0
  7  8  1  0  0  0  0
  7  6  1  0  0  0  0
  8 26  1  0  0  0  0
  8  9  1  0  0  0  0
  9 10  2  0  0  0  0
 10  1  1  0  0  0  0
 10 28  1  0  0  0  0
 11  9  1  0  0  0  0
 11 30  1  0  0  0  0
 12 11  1  0  0  0  0
 13  6  2  0  0  0  0
 14  1  1  0  0  0  0
 15 33  1  0  0  0  0
 16 18  1  0  0  0  0
 17 36  1  0  0  0  0
 17 16  1  0  0  0  0
 17 37  1  0  0  0  0
 18 40  1  0  0  0  0
 18 39  1  0  0  0  0
 18 41  1  0  0  0  0
 19  3  1  0  0  0  0
 21  4  1  0  0  0  0
 24  7  1  0  0  0  0
 25  7  1  0  0  0  0
 27  8  1  0  0  0  0
 29 11  1  0  0  0  0
 31 12  1  0  0  0  0
 32 15  1  0  0  0  0
 34 15  1  0  0  0  0
 35 16  1  0  0  0  0
 38 17  1  0  0  0  0
M  END
$$$$
