
 OpenBabel11301903583D

 41 42  0  0  1  0  0  0  0  0999 V2000
    2.5726   -2.0719    3.6023 C   0  0  1  0  0  0  0  0  0  0  0  0
    1.8174   -1.1279    2.5997 C   0  0  1  0  0  0  0  0  0  0  0  0
    1.4768    0.0472    3.5730 C   0  0  0  0  0  0  0  0  0  0  0  0
    2.7097    0.1929    4.4912 C   0  0  0  0  0  0  0  0  0  0  0  0
    3.5475   -1.1209    4.3721 C   0  0  1  0  0  0  0  0  0  0  0  0
    2.6747   -0.6672    1.4402 C   0  0  0  0  0  0  0  0  0  0  0  0
    3.3569   -1.5910    0.4987 C   0  0  0  0  0  0  0  0  0  0  0  0
    4.4403   -2.4614    1.1802 C   0  0  0  0  0  0  0  0  0  0  0  0
    3.8746   -3.5515    1.9748 C   0  0  0  0  0  0  0  0  0  0  0  0
    3.0684   -3.3377    3.0402 C   0  0  0  0  0  0  0  0  0  0  0  0
    4.1129   -4.9321    1.5356 C   0  0  0  0  0  0  0  0  0  0  0  0
    3.0502   -5.3170    0.6652 O   0  0  0  0  0  0  0  0  0  0  0  0
    2.8505    0.5561    1.2205 O   0  0  0  0  0  0  0  0  0  0  0  0
    1.8371   -2.3868    4.3596 H   0  0  0  0  0  0  0  0  0  0  0  0
    0.5046   -1.7619    2.0393 C   0  0  0  0  0  0  0  0  0  0  0  0
    4.1353   -1.6036    5.7515 C   0  0  0  0  0  0  0  0  0  0  0  0
    4.9296   -2.9378    5.6525 C   0  0  0  0  0  0  0  0  0  0  0  0
    5.0543   -0.5093    6.3792 C   0  0  0  0  0  0  0  0  0  0  0  0
    0.6089   -0.2037    4.1938 H   0  0  0  0  0  0  0  0  0  0  0  0
    1.2453    0.9857    3.0615 H   0  0  0  0  0  0  0  0  0  0  0  0
    2.3642    0.3691    5.5142 H   0  0  0  0  0  0  0  0  0  0  0  0
    3.3130    1.0528    4.1854 H   0  0  0  0  0  0  0  0  0  0  0  0
    4.3984   -0.9051    3.7249 H   0  0  0  0  0  0  0  0  0  0  0  0
    3.8456   -1.0119   -0.2928 H   0  0  0  0  0  0  0  0  0  0  0  0
    2.6216   -2.2304    0.0044 H   0  0  0  0  0  0  0  0  0  0  0  0
    5.0954   -1.8510    1.7998 H   0  0  0  0  0  0  0  0  0  0  0  0
    5.0816   -2.8521    0.3838 H   0  0  0  0  0  0  0  0  0  0  0  0
    2.7228   -4.1532    3.4968 H   0  0  0  0  0  0  0  0  0  0  0  0
    5.0612   -5.0373    1.0032 H   0  0  0  0  0  0  0  0  0  0  0  0
    4.1492   -5.6281    2.3776 H   0  0  0  0  0  0  0  0  0  0  0  0
    3.2415   -6.2431    0.4054 H   0  0  0  0  0  0  0  0  0  0  0  0
   -0.0391   -1.0344    1.4334 H   0  0  0  0  0  0  0  0  0  0  0  0
   -0.1562   -2.0869    2.8448 H   0  0  0  0  0  0  0  0  0  0  0  0
    0.7190   -2.6324    1.4176 H   0  0  0  0  0  0  0  0  0  0  0  0
    3.3051   -1.7747    6.4452 H   0  0  0  0  0  0  0  0  0  0  0  0
    5.6742   -2.8910    4.8551 H   0  0  0  0  0  0  0  0  0  0  0  0
    5.4447   -3.1552    6.5903 H   0  0  0  0  0  0  0  0  0  0  0  0
    4.2551   -3.7709    5.4600 H   0  0  0  0  0  0  0  0  0  0  0  0
    5.8997   -0.2928    5.7212 H   0  0  0  0  0  0  0  0  0  0  0  0
    4.5059    0.4184    6.5474 H   0  0  0  0  0  0  0  0  0  0  0  0
    5.4395   -0.8355    7.3470 H   0  0  0  0  0  0  0  0  0  0  0  0
  1  2  1  6  0  0  0
  1 14  1  0  0  0  0
  2 15  1  6  0  0  0
  2  3  1  0  0  0  0
  3 19  1  0  0  0  0
  3  4  1  0  0  0  0
  4 21  1  0  0  0  0
  5  1  1  6  0  0  0
  5  4  1  0  0  0  0
  5 16  1  0  0  0  0
  6  2  1  0  0  0  0
  7  8  1  0  0  0  0
  7  6  1  0  0  0  0
  8 26  1  0  0  0  0
  8  9  1  0  0  0  0
  9 10  2  0  0  0  0
 10 28  1  0  0  0  0
 10  1  1  0  0  0  0
 11  9  1  0  0  0  0
 11 30  1  0  0  0  0
 12 11  1  0  0  0  0
 13  6  2  0  0  0  0
 15 33  1  0  0  0  0
 16 18  1  0  0  0  0
 16 35  1  0  0  0  0
 17 16  1  0  0  0  0
 17 37  1  0  0  0  0
 18 40  1  0  0  0  0
 18 41  1  0  0  0  0
 20  3  1  0  0  0  0
 22  4  1  0  0  0  0
 23  5  1  0  0  0  0
 24  7  1  0  0  0  0
 25  7  1  0  0  0  0
 27  8  1  0  0  0  0
 29 11  1  0  0  0  0
 31 12  1  0  0  0  0
 32 15  1  0  0  0  0
 34 15  1  0  0  0  0
 36 17  1  0  0  0  0
 38 17  1  0  0  0  0
 39 18  1  0  0  0  0
M  END
$$$$
