
 OpenBabel11301904123D

 52 52  0  0  1  0  0  0  0  0999 V2000
   -0.8151    0.6167    5.9719 C   0  0  0  0  0  0  0  0  0  0  0  0
   -1.4816    1.9505    5.5819 C   0  0  1  0  0  0  0  0  0  0  0  0
   -2.2959    1.7049    4.4190 O   0  0  0  0  0  0  0  0  0  0  0  0
   -2.0249    0.3901    3.8965 C   0  0  2  0  0  0  0  0  0  0  0  0
   -0.7327   -0.0934    4.6207 C   0  0  2  0  0  0  0  0  0  0  0  0
   -2.3016    2.5638    6.7482 C   0  0  0  0  0  0  0  0  0  0  0  0
   -2.8484    3.8789    6.4003 C   0  0  0  0  0  0  0  0  0  0  0  0
   -4.0616    3.9581    5.8166 C   0  0  0  0  0  0  0  0  0  0  0  0
   -2.0457    5.0769    6.6314 C   0  0  0  0  0  0  0  0  0  0  0  0
   -4.9329    5.6844    5.2005 I   0  0  0  0  0  0  0  0  0  0  0  0
   -0.6343   -1.5085    4.7817 O   0  0  0  0  0  0  0  0  0  0  0  0
   -3.2681   -0.4963    4.2220 C   0  0  0  0  0  0  0  0  0  0  0  0
   -1.8101    0.4830    2.3552 C   0  0  0  0  0  0  0  0  0  0  0  0
   -3.0090    0.9352    1.6887 O   0  0  0  0  0  0  0  0  0  0  0  0
   -2.9771    1.0101    0.0449 Si  0  0  0  0  0  0  0  0  0  0  0  0
   -4.5760    1.5880   -0.4807 C   0  0  0  0  0  0  0  0  0  0  0  0
   -4.6771    1.7063   -2.0414 C   0  0  0  0  0  0  0  0  0  0  0  0
   -5.6908    0.6055    0.0113 C   0  0  0  0  0  0  0  0  0  0  0  0
   -4.8680    2.9938    0.1431 C   0  0  0  0  0  0  0  0  0  0  0  0
   -1.7151    2.1190   -0.4485 C   0  0  0  0  0  0  0  0  0  0  0  0
   -2.6464   -0.5862   -0.5956 C   0  0  0  0  0  0  0  0  0  0  0  0
   -1.4314    0.0393    6.6695 H   0  0  0  0  0  0  0  0  0  0  0  0
    0.1700    0.7720    6.4183 H   0  0  0  0  0  0  0  0  0  0  0  0
   -0.7017    2.6601    5.2816 H   0  0  0  0  0  0  0  0  0  0  0  0
    0.1679    0.2607    4.1043 H   0  0  0  0  0  0  0  0  0  0  0  0
   -3.1071    1.8733    7.0135 H   0  0  0  0  0  0  0  0  0  0  0  0
   -1.6605    2.6385    7.6322 H   0  0  0  0  0  0  0  0  0  0  0  0
   -4.5870    3.1293    5.6513 H   0  0  0  0  0  0  0  0  0  0  0  0
   -1.7066    5.4751    5.6728 H   0  0  0  0  0  0  0  0  0  0  0  0
   -1.1638    4.8785    7.2439 H   0  0  0  0  0  0  0  0  0  0  0  0
   -2.6272    5.8393    7.1540 H   0  0  0  0  0  0  0  0  0  0  0  0
   -0.5882   -1.8670    3.8713 H   0  0  0  0  0  0  0  0  0  0  0  0
   -4.1737   -0.0405    3.8199 H   0  0  0  0  0  0  0  0  0  0  0  0
   -3.4047   -0.6112    5.2987 H   0  0  0  0  0  0  0  0  0  0  0  0
   -3.1557   -1.4885    3.7818 H   0  0  0  0  0  0  0  0  0  0  0  0
   -1.5126   -0.5077    2.0002 H   0  0  0  0  0  0  0  0  0  0  0  0
   -0.9922    1.1819    2.1589 H   0  0  0  0  0  0  0  0  0  0  0  0
   -4.5331    0.7424   -2.5300 H   0  0  0  0  0  0  0  0  0  0  0  0
   -3.9437    2.4053   -2.4434 H   0  0  0  0  0  0  0  0  0  0  0  0
   -5.6623    2.0708   -2.3361 H   0  0  0  0  0  0  0  0  0  0  0  0
   -6.6813    0.9795   -0.2562 H   0  0  0  0  0  0  0  0  0  0  0  0
   -5.5858   -0.3788   -0.4463 H   0  0  0  0  0  0  0  0  0  0  0  0
   -5.6676    0.4838    1.0967 H   0  0  0  0  0  0  0  0  0  0  0  0
   -5.8730    3.3316   -0.1174 H   0  0  0  0  0  0  0  0  0  0  0  0
   -4.8019    2.9703    1.2334 H   0  0  0  0  0  0  0  0  0  0  0  0
   -4.1711    3.7467   -0.2265 H   0  0  0  0  0  0  0  0  0  0  0  0
   -1.8332    3.0741    0.0640 H   0  0  0  0  0  0  0  0  0  0  0  0
   -1.7603    2.2775   -1.5239 H   0  0  0  0  0  0  0  0  0  0  0  0
   -0.7353    1.7100   -0.2048 H   0  0  0  0  0  0  0  0  0  0  0  0
   -2.7632   -0.5866   -1.6774 H   0  0  0  0  0  0  0  0  0  0  0  0
   -3.3295   -1.3147   -0.1578 H   0  0  0  0  0  0  0  0  0  0  0  0
   -1.6237   -0.8822   -0.3654 H   0  0  0  0  0  0  0  0  0  0  0  0
  1 23  1  0  0  0  0
  1 22  1  0  0  0  0
  2 24  1  6  0  0  0
  2  1  1  0  0  0  0
  2  6  1  0  0  0  0
  3  2  1  0  0  0  0
  4 12  1  0  0  0  0
  4  3  1  0  0  0  0
  4  5  1  1  0  0  0
  5 25  1  6  0  0  0
  5 11  1  0  0  0  0
  5  1  1  0  0  0  0
  6 26  1  0  0  0  0
  6 27  1  0  0  0  0
  7  9  1  0  0  0  0
  7  6  1  0  0  0  0
  8  7  2  0  0  0  0
  9 31  1  0  0  0  0
  9 30  1  0  0  0  0
 10  8  1  0  0  0  0
 12 34  1  0  0  0  0
 13  4  1  0  0  0  0
 14 13  1  0  0  0  0
 15 14  1  0  0  0  0
 16 18  1  0  0  0  0
 16 15  1  0  0  0  0
 16 19  1  0  0  0  0
 17 16  1  0  0  0  0
 18 43  1  0  0  0  0
 19 45  1  0  0  0  0
 20 49  1  0  0  0  0
 20 15  1  0  0  0  0
 20 47  1  0  0  0  0
 21 52  1  0  0  0  0
 21 51  1  0  0  0  0
 21 15  1  0  0  0  0
 28  8  1  0  0  0  0
 29  9  1  0  0  0  0
 32 11  1  0  0  0  0
 33 12  1  0  0  0  0
 35 12  1  0  0  0  0
 36 13  1  0  0  0  0
 37 13  1  0  0  0  0
 38 17  1  0  0  0  0
 39 17  1  0  0  0  0
 40 17  1  0  0  0  0
 41 18  1  0  0  0  0
 42 18  1  0  0  0  0
 44 19  1  0  0  0  0
 46 19  1  0  0  0  0
 48 20  1  0  0  0  0
 50 21  1  0  0  0  0
M  END
$$$$
