
  Mrv1823 02201910563D          

 41 43  0  0  1  0            999 V2000
    0.3260    5.1508    0.0871 C   0  0  0  0  0  0  0  0  0  0  0  0
   -7.0974    2.8251    1.2396 C   0  0  1  0  0  0  0  0  0  0  0  0
   -6.4577    4.0530    0.7914 C   0  0  0  0  0  0  0  0  0  0  0  0
   -6.2963    1.5177    0.9809 C   0  0  2  0  0  0  0  0  0  0  0  0
   -5.3325    4.0924    0.0594 C   0  0  0  0  0  0  0  0  0  0  0  0
   -5.4695    1.6164   -0.3255 C   0  0  2  0  0  0  0  0  0  0  0  0
   -0.1630    1.3470    0.9561 C   0  0  1  0  0  0  0  0  0  0  0  0
    0.1905    0.0199    0.2390 C   0  0  1  0  0  0  0  0  0  0  0  0
   -4.5851    2.9104   -0.3674 C   0  0  2  0  0  0  0  0  0  0  0  0
   -0.0159    2.6203    0.0680 C   0  0  1  0  0  0  0  0  0  0  0  0
   -3.2212    2.7442    0.3928 C   0  0  1  0  0  0  0  0  0  0  0  0
   -0.6870    2.7194   -1.2580 C   0  0  0  0  0  0  0  0  0  0  0  0
   -2.2274    4.8814    1.1441 C   0  0  0  0  0  0  0  0  0  0  0  0
   -0.6425    3.9592    0.5524 C   0  0  2  0  0  0  0  0  0  0  0  0
   -2.1616    3.8841    0.0594 C   0  0  1  0  0  0  0  0  0  0  0  0
    1.8815   -0.0566   -0.2542 Cl  0  0  0  0  0  0  0  0  0  0  0  0
   -1.6825    3.6614   -1.2620 N   0  0  0  0  0  0  0  0  0  0  0  0
   -3.4588    2.5709    1.7954 O   0  0  0  0  0  0  0  0  0  0  0  0
   -0.3179    2.1103   -2.2864 O   0  0  0  0  0  0  0  0  0  0  0  0
   -3.0936    5.7217    1.4747 O   0  0  0  0  0  0  0  0  0  0  0  0
   -1.1144    4.4569    1.7991 O   0  0  0  0  0  0  0  0  0  0  0  0
   -4.3493    3.0654   -1.4254 H   0  0  0  0  0  0  0  0  0  0  0  0
    1.0588    2.7426   -0.0994 H   0  0  0  0  0  0  0  0  0  0  0  0
   -2.8292    1.7889    0.0429 H   0  0  0  0  0  0  0  0  0  0  0  0
    1.2133    5.1592    0.7255 H   0  0  0  0  0  0  0  0  0  0  0  0
   -0.1507    6.1313    0.1683 H   0  0  0  0  0  0  0  0  0  0  0  0
    0.6551    5.0480   -0.9503 H   0  0  0  0  0  0  0  0  0  0  0  0
   -7.3016    2.9059    2.3116 H   0  0  0  0  0  0  0  0  0  0  0  0
   -8.0539    2.7523    0.7174 H   0  0  0  0  0  0  0  0  0  0  0  0
   -6.8964    4.9134    1.0310 H   0  0  0  0  0  0  0  0  0  0  0  0
   -6.9850    0.6701    0.9099 H   0  0  0  0  0  0  0  0  0  0  0  0
   -5.6339    1.3156    1.8246 H   0  0  0  0  0  0  0  0  0  0  0  0
   -4.9940    4.9841   -0.2190 H   0  0  0  0  0  0  0  0  0  0  0  0
   -6.1685    1.6397   -1.1677 H   0  0  0  0  0  0  0  0  0  0  0  0
   -4.8591    0.7159   -0.4408 H   0  0  0  0  0  0  0  0  0  0  0  0
   -1.1598    1.2465    1.3656 H   0  0  0  0  0  0  0  0  0  0  0  0
    0.5002    1.4640    1.8179 H   0  0  0  0  0  0  0  0  0  0  0  0
    0.0037   -0.8152    0.9177 H   0  0  0  0  0  0  0  0  0  0  0  0
   -0.4400   -0.1128   -0.6409 H   0  0  0  0  0  0  0  0  0  0  0  0
   -2.1041    4.0131   -2.0621 H   0  0  0  0  0  0  0  0  0  0  0  0
   -2.5757    2.4258    2.1920 H   0  0  0  0  0  0  0  0  0  0  0  0
  3  2  1  0  0  0  0
  4  2  1  0  0  0  0
  5  3  2  0  0  0  0
  6  4  1  0  0  0  0
  8  7  1  0  0  0  0
  9  5  1  0  0  0  0
  9  6  1  0  0  0  0
 10  7  1  0  0  0  0
 11  9  1  0  0  0  0
 12 10  1  0  0  0  0
 14  1  1  0  0  0  0
 14 10  1  0  0  0  0
 15 11  1  0  0  0  0
 15 13  1  0  0  0  0
 15 14  1  0  0  0  0
 16  8  1  0  0  0  0
 17 12  1  0  0  0  0
 17 15  1  0  0  0  0
 18 11  1  0  0  0  0
 19 12  2  0  0  0  0
 20 13  2  0  0  0  0
 21 13  1  0  0  0  0
 21 14  1  0  0  0  0
 22  9  1  0  0  0  0
 23 10  1  0  0  0  0
 24 11  1  0  0  0  0
  1 25  1  0  0  0  0
  1 26  1  0  0  0  0
  1 27  1  0  0  0  0
  2 28  1  0  0  0  0
  2 29  1  0  0  0  0
  3 30  1  0  0  0  0
  4 31  1  0  0  0  0
  4 32  1  0  0  0  0
  5 33  1  0  0  0  0
  6 34  1  0  0  0  0
  6 35  1  0  0  0  0
  7 36  1  0  0  0  0
  7 37  1  0  0  0  0
  8 38  1  0  0  0  0
  8 39  1  0  0  0  0
 17 40  1  0  0  0  0
 18 41  1  0  0  0  0
M  END
$$$$
