
 OpenBabel02201910563D

 41 43  0  0  1  0  0  0  0  0999 V2000
   -0.9758    2.0294   -0.8433 C   0  0  1  0  0  0  0  0  0  0  0  0
   -0.9097    3.5864   -1.0374 C   0  0  2  0  0  0  0  0  0  0  0  0
   -1.9039    4.2149    0.0047 C   0  0  2  0  0  0  0  0  0  0  0  0
   -2.4598    3.0746    0.6376 N   0  0  0  0  0  0  0  0  0  0  0  0
   -2.0443    1.9038    0.1568 C   0  0  0  0  0  0  0  0  0  0  0  0
   -2.5534    0.8250    0.5337 O   0  0  0  0  0  0  0  0  0  0  0  0
   -0.6743    4.7201    0.6138 C   0  0  0  0  0  0  0  0  0  0  0  0
    0.1608    4.2235   -0.3119 O   0  0  0  0  0  0  0  0  0  0  0  0
   -0.4437    5.3602    1.6639 O   0  0  0  0  0  0  0  0  0  0  0  0
   -0.9439    4.0453   -2.5210 C   0  0  0  0  0  0  0  0  0  0  0  0
   -2.9376    5.3233   -0.4122 C   0  0  1  0  0  0  0  0  0  0  0  0
   -3.6238    6.0936    0.7790 C   0  0  2  0  0  0  0  0  0  0  0  0
   -3.9258    4.7196   -1.2471 O   0  0  0  0  0  0  0  0  0  0  0  0
   -4.5491    7.2775    0.3402 C   0  0  0  0  0  0  0  0  0  0  0  0
   -5.9276    6.7879   -0.1795 C   0  0  0  0  0  0  0  0  0  0  0  0
   -6.5822    5.7273    0.7566 C   0  0  0  0  0  0  0  0  0  0  0  0
   -5.6770    5.0099    1.6431 C   0  0  0  0  0  0  0  0  0  0  0  0
   -4.3480    5.1984    1.6779 C   0  0  0  0  0  0  0  0  0  0  0  0
   -2.8215    6.5581    1.3639 H   0  0  0  0  0  0  0  0  0  0  0  0
    0.3788    1.4010   -0.3852 C   0  0  0  0  0  0  0  0  0  0  0  0
    0.3522   -0.1277   -0.1350 C   0  0  0  0  0  0  0  0  0  0  0  0
    1.9619   -0.7321    0.2447 Cl  0  0  0  0  0  0  0  0  0  0  0  0
   -1.3060    1.5413   -1.7645 H   0  0  0  0  0  0  0  0  0  0  0  0
   -3.1107    3.1298    1.3505 H   0  0  0  0  0  0  0  0  0  0  0  0
   -0.0819    3.6380   -3.0527 H   0  0  0  0  0  0  0  0  0  0  0  0
   -0.9049    5.1322   -2.5987 H   0  0  0  0  0  0  0  0  0  0  0  0
   -1.8514    3.6782   -3.0033 H   0  0  0  0  0  0  0  0  0  0  0  0
   -2.4175    6.0734   -1.0161 H   0  0  0  0  0  0  0  0  0  0  0  0
   -3.4482    4.4200   -2.0456 H   0  0  0  0  0  0  0  0  0  0  0  0
   -4.0591    7.8914   -0.4207 H   0  0  0  0  0  0  0  0  0  0  0  0
   -4.7269    7.9196    1.2107 H   0  0  0  0  0  0  0  0  0  0  0  0
   -5.8064    6.3674   -1.1793 H   0  0  0  0  0  0  0  0  0  0  0  0
   -6.5970    7.6460   -0.2824 H   0  0  0  0  0  0  0  0  0  0  0  0
   -7.1123    4.9933    0.1433 H   0  0  0  0  0  0  0  0  0  0  0  0
   -7.3218    6.2296    1.3858 H   0  0  0  0  0  0  0  0  0  0  0  0
   -6.0722    4.3531    2.2774 H   0  0  0  0  0  0  0  0  0  0  0  0
   -3.8230    4.6944    2.3559 H   0  0  0  0  0  0  0  0  0  0  0  0
    0.7025    1.8806    0.5437 H   0  0  0  0  0  0  0  0  0  0  0  0
    1.1265    1.6148   -1.1555 H   0  0  0  0  0  0  0  0  0  0  0  0
   -0.0170   -0.6559   -1.0156 H   0  0  0  0  0  0  0  0  0  0  0  0
   -0.2906   -0.3610    0.7163 H   0  0  0  0  0  0  0  0  0  0  0  0
  1 23  1  6  0  0  0
  1 20  1  0  0  0  0
  1  5  1  0  0  0  0
  2 10  1  6  0  0  0
  2  1  1  0  0  0  0
  2  8  1  0  0  0  0
  2  3  1  0  0  0  0
  3  7  1  1  0  0  0
  3  4  1  0  0  0  0
  4 24  1  0  0  0  0
  5  6  2  0  0  0  0
  5  4  1  0  0  0  0
  7  9  2  0  0  0  0
  8  7  1  0  0  0  0
 11 28  1  6  0  0  0
 11  3  1  0  0  0  0
 11 12  1  0  0  0  0
 12 19  1  1  0  0  0
 12 18  1  0  0  0  0
 13 11  1  0  0  0  0
 14 12  1  0  0  0  0
 14 31  1  0  0  0  0
 15 14  1  0  0  0  0
 15 16  1  0  0  0  0
 16 35  1  0  0  0  0
 16 17  1  0  0  0  0
 17 18  2  0  0  0  0
 17 36  1  0  0  0  0
 18 37  1  0  0  0  0
 20 21  1  0  0  0  0
 20 38  1  0  0  0  0
 21 22  1  0  0  0  0
 21 41  1  0  0  0  0
 25 10  1  0  0  0  0
 26 10  1  0  0  0  0
 27 10  1  0  0  0  0
 29 13  1  0  0  0  0
 30 14  1  0  0  0  0
 32 15  1  0  0  0  0
 33 15  1  0  0  0  0
 34 16  1  0  0  0  0
 39 20  1  0  0  0  0
 40 21  1  0  0  0  0
M  END
$$$$
