
     RDKit          3D

 44 48  0  0  1  0  0  0  0  0999 V2000
    2.4708    1.2074   -0.5944 C   0  0  0  0  0  0  0  0  0  0  0  0
    1.0937    0.9150   -0.7323 C   0  0  0  0  0  0  0  0  0  0  0  0
    0.5081   -0.3876   -1.1770 C   0  0  1  0  0  0  0  0  0  0  0  0
    1.5334   -1.5737   -0.8342 C   0  0  1  0  0  0  0  0  0  0  0  0
    2.8722   -1.1585   -0.1234 C   0  0  1  0  0  0  0  0  0  0  0  0
    3.4787    0.1353   -0.7605 C   0  0  2  0  0  0  0  0  0  0  0  0
    0.4229    2.0224   -0.2959 C   0  0  0  0  0  0  0  0  0  0  0  0
   -0.9834    2.0929   -0.0611 C   0  0  0  0  0  0  0  0  0  0  0  0
   -1.6449    0.7367   -0.1190 C   0  0  0  0  0  0  0  0  0  0  0  0
   -0.9380   -0.4246   -0.5973 C   0  0  0  0  0  0  0  0  0  0  0  0
   -2.9725    0.6080    0.3060 C   0  0  0  0  0  0  0  0  0  0  0  0
   -3.5949   -0.6316    0.2384 C   0  0  0  0  0  0  0  0  0  0  0  0
   -2.9758   -1.7655   -0.2434 C   0  0  0  0  0  0  0  0  0  0  0  0
   -1.6534   -1.6509   -0.6712 C   0  0  0  0  0  0  0  0  0  0  0  0
   -4.9568   -0.5094    0.7382 C   0  0  0  0  0  0  0  0  0  0  0  0
   -5.2015    0.9052    1.1851 C   0  0  0  0  0  0  0  0  0  0  0  0
   -3.9026    1.6549    0.8491 C   0  0  0  0  0  0  0  0  0  0  0  0
    2.5454    2.5245   -0.2021 C   0  0  0  0  0  0  0  0  0  0  0  0
    1.2897    3.0344   -0.0226 O   0  0  0  0  0  0  0  0  0  0  0  0
   -1.6103    3.1141    0.1876 O   0  0  0  0  0  0  0  0  0  0  0  0
   -5.7518   -1.4311    0.7838 O   0  0  0  0  0  0  0  0  0  0  0  0
    0.3517   -0.3375   -2.7233 C   0  0  0  0  0  0  0  0  0  0  0  0
    0.9502   -2.6170   -0.0380 O   0  0  0  0  0  0  0  0  0  0  0  0
    2.5325   -1.0498    1.2853 O   0  0  0  0  0  0  0  0  0  0  0  0
    4.7405    0.4842   -0.2023 O   0  0  0  0  0  0  0  0  0  0  0  0
    3.6362   -0.8073    2.1461 C   0  0  0  0  0  0  0  0  0  0  0  0
    1.8206   -2.0535   -1.7785 H   0  0  0  0  0  0  0  0  0  0  0  0
    3.5873   -1.9871   -0.2053 H   0  0  0  0  0  0  0  0  0  0  0  0
    3.6414   -0.0349   -1.8320 H   0  0  0  0  0  0  0  0  0  0  0  0
   -3.5055   -2.7124   -0.2933 H   0  0  0  0  0  0  0  0  0  0  0  0
   -1.1808   -2.5433   -1.0817 H   0  0  0  0  0  0  0  0  0  0  0  0
   -5.3981    0.9221    2.2613 H   0  0  0  0  0  0  0  0  0  0  0  0
   -6.0524    1.3295    0.6443 H   0  0  0  0  0  0  0  0  0  0  0  0
   -4.1024    2.4260    0.0975 H   0  0  0  0  0  0  0  0  0  0  0  0
   -3.4930    2.1216    1.7508 H   0  0  0  0  0  0  0  0  0  0  0  0
    3.3608    3.1929    0.0393 H   0  0  0  0  0  0  0  0  0  0  0  0
    1.3195   -0.1906   -3.2181 H   0  0  0  0  0  0  0  0  0  0  0  0
   -0.0819   -1.2666   -3.1115 H   0  0  0  0  0  0  0  0  0  0  0  0
   -0.2995    0.4864   -3.0419 H   0  0  0  0  0  0  0  0  0  0  0  0
    1.0521   -2.3134    0.8900 H   0  0  0  0  0  0  0  0  0  0  0  0
    5.3633   -0.2295   -0.4186 H   0  0  0  0  0  0  0  0  0  0  0  0
    4.4883   -1.4439    1.8907 H   0  0  0  0  0  0  0  0  0  0  0  0
    3.9162    0.2484    2.1217 H   0  0  0  0  0  0  0  0  0  0  0  0
    3.3240   -1.0421    3.1676 H   0  0  0  0  0  0  0  0  0  0  0  0
  1 18  2  0
  2  1  1  0
  2  7  2  0
  3 10  1  0
  3  2  1  0
  3  4  1  0
  4  5  1  0
  4 23  1  0
  5  6  1  0
  5 24  1  0
  6 29  1  6
  6  1  1  0
  6 25  1  0
  7  8  1  0
  7 19  1  0
  8 20  2  0
  9 11  2  0
  9  8  1  0
 10  9  1  0
 11 17  1  0
 12 15  1  0
 12 11  1  0
 13 12  2  0
 14 13  1  0
 14 10  2  0
 15 16  1  0
 16 17  1  0
 16 33  1  0
 17 34  1  0
 18 36  1  0
 18 19  1  0
 21 15  2  0
  3 22  1  6
 23 40  1  0
 25 41  1  0
 26 24  1  0
 26 42  1  0
  4 27  1  6
  5 28  1  1
 30 13  1  0
 31 14  1  0
 32 16  1  0
 35 17  1  0
 37 22  1  0
 38 22  1  0
 39 22  1  0
 43 26  1  0
 44 26  1  0
M  END
$$$$
