
 OpenBabel11301904153D

 72 74  0  0  1  0  0  0  0  0999 V2000
   -4.8075    3.7615    7.3060 C   0  0  0  0  0  0  0  0  0  0  0  0
   -3.8193    2.7061    6.6680 C   0  0  2  0  0  0  0  0  0  0  0  0
   -2.6121    3.3506    6.1966 O   0  0  0  0  0  0  0  0  0  0  0  0
   -1.8806    4.1599    7.1430 C   0  0  0  0  0  0  0  0  0  0  0  0
   -2.7544    5.1445    7.7393 O   0  0  0  0  0  0  0  0  0  0  0  0
   -3.9665    4.6195    8.3149 C   0  0  0  0  0  0  0  0  0  0  0  0
   -1.1231    3.3011    8.2048 C   0  0  0  0  0  0  0  0  0  0  0  0
   -0.8643    4.9613    6.2830 C   0  0  0  0  0  0  0  0  0  0  0  0
   -5.9623    3.0651    8.1024 C   0  0  0  0  0  0  0  0  0  0  0  0
   -5.4430    4.7019    6.2291 C   0  0  0  0  0  0  0  0  0  0  0  0
   -4.3635    1.8613    5.4680 C   0  0  0  0  0  0  0  0  0  0  0  0
   -3.3683    0.8839    4.9827 C   0  0  0  0  0  0  0  0  0  0  0  0
   -3.2806   -0.4004    5.6826 C   0  0  0  0  0  0  0  0  0  0  0  0
   -2.5777    1.1928    3.9224 C   0  0  0  0  0  0  0  0  0  0  0  0
   -1.4823    0.3812    3.3841 C   0  0  2  0  0  0  0  0  0  0  0  0
   -2.0331   -0.8853    2.9808 O   0  0  0  0  0  0  0  0  0  0  0  0
   -0.6596    1.0403    2.2146 C   0  0  2  0  0  0  0  0  0  0  0  0
    0.2724   -0.0269    1.5685 C   0  0  1  0  0  0  0  0  0  0  0  0
   -0.3385   -1.3228    1.3823 O   0  0  0  0  0  0  0  0  0  0  0  0
   -1.0843   -1.8594    2.4936 C   0  0  0  0  0  0  0  0  0  0  0  0
   -0.1612   -2.4510    3.6037 C   0  0  0  0  0  0  0  0  0  0  0  0
   -1.9625   -2.9830    1.8899 C   0  0  0  0  0  0  0  0  0  0  0  0
    0.5017    0.5531    0.1652 C   0  0  0  0  0  0  0  0  0  0  0  0
   -0.8662    1.2090   -0.1434 C   0  0  1  0  0  0  0  0  0  0  0  0
   -1.5115    1.4645    1.1258 O   0  0  0  0  0  0  0  0  0  0  0  0
    0.1433    2.2790    2.7459 C   0  0  0  0  0  0  0  0  0  0  0  0
   -0.7573    2.4934   -1.0218 C   0  0  0  0  0  0  0  0  0  0  0  0
   -2.0734    3.0254   -1.4082 C   0  0  0  0  0  0  0  0  0  0  0  0
   -2.7379    2.4719   -2.5866 C   0  0  0  0  0  0  0  0  0  0  0  0
   -2.6707    3.9605   -0.6409 C   0  0  0  0  0  0  0  0  0  0  0  0
   -4.5306    4.7052   -0.9627 I   0  0  0  0  0  0  0  0  0  0  0  0
   -3.5461    1.9915    7.4493 H   0  0  0  0  0  0  0  0  0  0  0  0
   -4.5517    5.4699    8.6704 H   0  0  0  0  0  0  0  0  0  0  0  0
   -3.7197    4.0341    9.2026 H   0  0  0  0  0  0  0  0  0  0  0  0
   -0.4450    2.6007    7.7134 H   0  0  0  0  0  0  0  0  0  0  0  0
   -0.5481    3.9440    8.8730 H   0  0  0  0  0  0  0  0  0  0  0  0
   -1.8094    2.7195    8.8174 H   0  0  0  0  0  0  0  0  0  0  0  0
   -0.1241    4.2193    5.8528 H   0  0  0  0  0  0  0  0  0  0  0  0
   -0.2499    5.6008    6.9870 H   0  0  0  0  0  0  0  0  0  0  0  0
   -1.4986    5.5524    5.4920 H   0  0  0  0  0  0  0  0  0  0  0  0
   -5.5632    2.3635    8.8368 H   0  0  0  0  0  0  0  0  0  0  0  0
   -6.5620    3.8026    8.6415 H   0  0  0  0  0  0  0  0  0  0  0  0
   -6.6285    2.5129    7.4382 H   0  0  0  0  0  0  0  0  0  0  0  0
   -6.1290    4.1499    5.5825 H   0  0  0  0  0  0  0  0  0  0  0  0
   -4.6695    5.1506    5.6052 H   0  0  0  0  0  0  0  0  0  0  0  0
   -6.0123    5.5073    6.6994 H   0  0  0  0  0  0  0  0  0  0  0  0
   -4.6605    2.5305    4.6562 H   0  0  0  0  0  0  0  0  0  0  0  0
   -5.2756    1.3382    5.7672 H   0  0  0  0  0  0  0  0  0  0  0  0
   -3.8260   -1.1620    5.1194 H   0  0  0  0  0  0  0  0  0  0  0  0
   -3.7183   -0.3514    6.6827 H   0  0  0  0  0  0  0  0  0  0  0  0
   -2.2457   -0.7232    5.8062 H   0  0  0  0  0  0  0  0  0  0  0  0
   -2.7357    2.0668    3.4744 H   0  0  0  0  0  0  0  0  0  0  0  0
   -0.7904    0.2215    4.2140 H   0  0  0  0  0  0  0  0  0  0  0  0
    1.2139   -0.1390    2.1127 H   0  0  0  0  0  0  0  0  0  0  0  0
    0.5394   -1.7057    3.9783 H   0  0  0  0  0  0  0  0  0  0  0  0
    0.4243   -3.2815    3.2080 H   0  0  0  0  0  0  0  0  0  0  0  0
   -0.7561   -2.8159    4.4435 H   0  0  0  0  0  0  0  0  0  0  0  0
   -2.6034   -2.5718    1.1063 H   0  0  0  0  0  0  0  0  0  0  0  0
   -1.3386   -3.7632    1.4492 H   0  0  0  0  0  0  0  0  0  0  0  0
   -2.6004   -3.4305    2.6558 H   0  0  0  0  0  0  0  0  0  0  0  0
    1.3090    1.2912    0.1869 H   0  0  0  0  0  0  0  0  0  0  0  0
    0.7614   -0.2181   -0.5660 H   0  0  0  0  0  0  0  0  0  0  0  0
   -1.4809    0.4723   -0.6720 H   0  0  0  0  0  0  0  0  0  0  0  0
   -0.5316    3.0316    3.1540 H   0  0  0  0  0  0  0  0  0  0  0  0
    0.7231    2.7571    1.9560 H   0  0  0  0  0  0  0  0  0  0  0  0
    0.8372    1.9855    3.5350 H   0  0  0  0  0  0  0  0  0  0  0  0
   -0.1746    2.2634   -1.9200 H   0  0  0  0  0  0  0  0  0  0  0  0
   -0.1780    3.2491   -0.4818 H   0  0  0  0  0  0  0  0  0  0  0  0
   -3.2432    3.2475   -3.1666 H   0  0  0  0  0  0  0  0  0  0  0  0
   -2.0329    1.9826   -3.2633 H   0  0  0  0  0  0  0  0  0  0  0  0
   -3.4718    1.7285   -2.2716 H   0  0  0  0  0  0  0  0  0  0  0  0
   -2.1999    4.3238    0.1550 H   0  0  0  0  0  0  0  0  0  0  0  0
  1  9  1  0  0  0  0
  1  6  1  0  0  0  0
  2  1  1  0  0  0  0
  2 32  1  1  0  0  0
  3  2  1  0  0  0  0
  3  4  1  0  0  0  0
  4  5  1  0  0  0  0
  4  7  1  0  0  0  0
  5  6  1  0  0  0  0
  6 33  1  0  0  0  0
  6 34  1  0  0  0  0
  7 37  1  0  0  0  0
  7 36  1  0  0  0  0
  8 39  1  0  0  0  0
  8  4  1  0  0  0  0
  9 42  1  0  0  0  0
  9 41  1  0  0  0  0
 10 46  1  0  0  0  0
 10  1  1  0  0  0  0
 11 48  1  0  0  0  0
 11  2  1  0  0  0  0
 12 11  1  0  0  0  0
 12 13  1  0  0  0  0
 13 51  1  0  0  0  0
 13 50  1  0  0  0  0
 14 12  2  0  0  0  0
 15 17  1  6  0  0  0
 15 14  1  0  0  0  0
 15 53  1  0  0  0  0
 16 15  1  0  0  0  0
 17 18  1  6  0  0  0
 17 26  1  0  0  0  0
 18 54  1  1  0  0  0
 19 18  1  0  0  0  0
 19 20  1  0  0  0  0
 20 16  1  0  0  0  0
 20 21  1  0  0  0  0
 21 55  1  0  0  0  0
 21 57  1  0  0  0  0
 22 20  1  0  0  0  0
 22 60  1  0  0  0  0
 23 61  1  0  0  0  0
 23 18  1  0  0  0  0
 24 63  1  6  0  0  0
 24 23  1  0  0  0  0
 24 25  1  0  0  0  0
 25 17  1  0  0  0  0
 26 64  1  0  0  0  0
 26 66  1  0  0  0  0
 27 68  1  0  0  0  0
 27 24  1  0  0  0  0
 28 27  1  0  0  0  0
 28 30  2  0  0  0  0
 29 71  1  0  0  0  0
 29 28  1  0  0  0  0
 30 72  1  0  0  0  0
 31 30  1  0  0  0  0
 35  7  1  0  0  0  0
 38  8  1  0  0  0  0
 40  8  1  0  0  0  0
 43  9  1  0  0  0  0
 44 10  1  0  0  0  0
 45 10  1  0  0  0  0
 47 11  1  0  0  0  0
 49 13  1  0  0  0  0
 52 14  1  0  0  0  0
 56 21  1  0  0  0  0
 58 22  1  0  0  0  0
 59 22  1  0  0  0  0
 62 23  1  0  0  0  0
 65 26  1  0  0  0  0
 67 27  1  0  0  0  0
 69 29  1  0  0  0  0
 70 29  1  0  0  0  0
M  END
$$$$
