
 OpenBabel11301904153D

 72 74  0  0  1  0  0  0  0  0999 V2000
    1.8593    4.6782    8.1501 C   0  0  0  0  0  0  0  0  0  0  0  0
    2.2217    4.4988    6.6252 C   0  0  2  0  0  0  0  0  0  0  0  0
    3.5992    4.0861    6.4675 O   0  0  0  0  0  0  0  0  0  0  0  0
    4.0357    2.9243    7.2114 C   0  0  0  0  0  0  0  0  0  0  0  0
    3.6541    2.9993    8.6058 O   0  0  0  0  0  0  0  0  0  0  0  0
    2.2789    3.3430    8.8551 C   0  0  0  0  0  0  0  0  0  0  0  0
    3.5631    1.5941    6.5468 C   0  0  0  0  0  0  0  0  0  0  0  0
    5.5880    3.0050    7.2168 C   0  0  0  0  0  0  0  0  0  0  0  0
    0.3218    4.8888    8.3667 C   0  0  0  0  0  0  0  0  0  0  0  0
    2.6369    5.8721    8.7992 C   0  0  0  0  0  0  0  0  0  0  0  0
    2.0422    5.7648    5.7257 C   0  0  0  0  0  0  0  0  0  0  0  0
    2.1163    5.4493    4.2890 C   0  0  0  0  0  0  0  0  0  0  0  0
    0.8507    5.0926    3.6388 C   0  0  0  0  0  0  0  0  0  0  0  0
    3.3141    5.4941    3.6574 C   0  0  0  0  0  0  0  0  0  0  0  0
    3.5763    5.2030    2.2525 C   0  0  2  0  0  0  0  0  0  0  0  0
    4.7531    5.9265    1.7949 O   0  0  0  0  0  0  0  0  0  0  0  0
    3.8213    3.6802    1.9737 C   0  0  1  0  0  0  0  0  0  0  0  0
    3.9379    3.6000    0.4336 C   0  0  1  0  0  0  0  0  0  0  0  0
    5.1522    4.2546    0.0201 O   0  0  0  0  0  0  0  0  0  0  0  0
    5.2109    5.6600    0.4286 C   0  0  0  0  0  0  0  0  0  0  0  0
    4.4476    6.5758   -0.5718 C   0  0  0  0  0  0  0  0  0  0  0  0
    6.7178    6.0319    0.4103 C   0  0  0  0  0  0  0  0  0  0  0  0
    3.7374    2.1079    0.1296 C   0  0  0  0  0  0  0  0  0  0  0  0
    2.9337    1.6246    1.3724 C   0  0  1  0  0  0  0  0  0  0  0  0
    2.7189    2.7897    2.2079 O   0  0  0  0  0  0  0  0  0  0  0  0
    5.0714    3.1681    2.7788 C   0  0  0  0  0  0  0  0  0  0  0  0
    1.5774    0.9366    1.0544 C   0  0  0  0  0  0  0  0  0  0  0  0
    1.0327    0.2436    2.2319 C   0  0  0  0  0  0  0  0  0  0  0  0
    1.2863   -1.1847    2.4094 C   0  0  0  0  0  0  0  0  0  0  0  0
    0.3462    0.9374    3.1638 C   0  0  0  0  0  0  0  0  0  0  0  0
   -0.4179    0.1368    4.8651 I   0  0  0  0  0  0  0  0  0  0  0  0
    1.5760    3.7128    6.2182 H   0  0  0  0  0  0  0  0  0  0  0  0
    2.1652    3.4358    9.9378 H   0  0  0  0  0  0  0  0  0  0  0  0
    1.6374    2.5136    8.5413 H   0  0  0  0  0  0  0  0  0  0  0  0
    3.9333    1.5206    5.5241 H   0  0  0  0  0  0  0  0  0  0  0  0
    3.9296    0.7363    7.1138 H   0  0  0  0  0  0  0  0  0  0  0  0
    2.4774    1.5317    6.5100 H   0  0  0  0  0  0  0  0  0  0  0  0
    5.9418    2.9030    6.1464 H   0  0  0  0  0  0  0  0  0  0  0  0
    5.9760    2.0754    7.7347 H   0  0  0  0  0  0  0  0  0  0  0  0
    5.8597    4.0206    7.7395 H   0  0  0  0  0  0  0  0  0  0  0  0
   -0.2547    4.0928    7.8891 H   0  0  0  0  0  0  0  0  0  0  0  0
    0.0802    4.8888    9.4326 H   0  0  0  0  0  0  0  0  0  0  0  0
   -0.0126    5.8427    7.9568 H   0  0  0  0  0  0  0  0  0  0  0  0
    2.3175    6.8261    8.3760 H   0  0  0  0  0  0  0  0  0  0  0  0
    3.7129    5.7727    8.6407 H   0  0  0  0  0  0  0  0  0  0  0  0
    2.4549    5.9164    9.8752 H   0  0  0  0  0  0  0  0  0  0  0  0
    2.7976    6.5104    5.9945 H   0  0  0  0  0  0  0  0  0  0  0  0
    1.0818    6.2378    5.9405 H   0  0  0  0  0  0  0  0  0  0  0  0
    0.2250    5.9857    3.5766 H   0  0  0  0  0  0  0  0  0  0  0  0
    0.3205    4.3373    4.2233 H   0  0  0  0  0  0  0  0  0  0  0  0
    0.9556    4.6899    2.6338 H   0  0  0  0  0  0  0  0  0  0  0  0
    4.1144    5.7412    4.1951 H   0  0  0  0  0  0  0  0  0  0  0  0
    2.7362    5.5902    1.6697 H   0  0  0  0  0  0  0  0  0  0  0  0
    3.0874    4.0965   -0.0551 H   0  0  0  0  0  0  0  0  0  0  0  0
    3.3837    6.3468   -0.5768 H   0  0  0  0  0  0  0  0  0  0  0  0
    4.8302    6.4369   -1.5852 H   0  0  0  0  0  0  0  0  0  0  0  0
    4.5641    7.6257   -0.2900 H   0  0  0  0  0  0  0  0  0  0  0  0
    7.2797    5.3778    1.0796 H   0  0  0  0  0  0  0  0  0  0  0  0
    7.1305    5.9246   -0.5951 H   0  0  0  0  0  0  0  0  0  0  0  0
    6.8675    7.0624    0.7404 H   0  0  0  0  0  0  0  0  0  0  0  0
    3.1865    1.9728   -0.8087 H   0  0  0  0  0  0  0  0  0  0  0  0
    4.7003    1.5988    0.0489 H   0  0  0  0  0  0  0  0  0  0  0  0
    3.5536    0.9080    1.9206 H   0  0  0  0  0  0  0  0  0  0  0  0
    4.7884    3.0046    3.8171 H   0  0  0  0  0  0  0  0  0  0  0  0
    5.8947    3.8807    2.7638 H   0  0  0  0  0  0  0  0  0  0  0  0
    5.4576    2.2299    2.3835 H   0  0  0  0  0  0  0  0  0  0  0  0
    1.7264    0.2286    0.2345 H   0  0  0  0  0  0  0  0  0  0  0  0
    0.8676    1.6831    0.6852 H   0  0  0  0  0  0  0  0  0  0  0  0
    0.3399   -1.7296    2.4451 H   0  0  0  0  0  0  0  0  0  0  0  0
    1.8819   -1.6125    1.5993 H   0  0  0  0  0  0  0  0  0  0  0  0
    1.8369   -1.3576    3.3372 H   0  0  0  0  0  0  0  0  0  0  0  0
    0.1932    1.9107    3.0418 H   0  0  0  0  0  0  0  0  0  0  0  0
  1  9  1  0  0  0  0
  1 10  1  0  0  0  0
  1  6  1  0  0  0  0
  2 32  1  6  0  0  0
  2  1  1  0  0  0  0
  3  2  1  0  0  0  0
  3  4  1  0  0  0  0
  4  8  1  0  0  0  0
  4  5  1  0  0  0  0
  5  6  1  0  0  0  0
  6 33  1  0  0  0  0
  7 36  1  0  0  0  0
  7  4  1  0  0  0  0
  8 39  1  0  0  0  0
  8 40  1  0  0  0  0
  9 42  1  0  0  0  0
 10 46  1  0  0  0  0
 11 48  1  0  0  0  0
 11 47  1  0  0  0  0
 11  2  1  0  0  0  0
 12 11  1  0  0  0  0
 13 50  1  0  0  0  0
 13 12  1  0  0  0  0
 14 52  1  0  0  0  0
 14 12  2  0  0  0  0
 15 17  1  6  0  0  0
 15 14  1  0  0  0  0
 16 15  1  0  0  0  0
 17 18  1  6  0  0  0
 17 25  1  0  0  0  0
 17 26  1  0  0  0  0
 18 54  1  6  0  0  0
 19 20  1  0  0  0  0
 19 18  1  0  0  0  0
 20 16  1  0  0  0  0
 21 57  1  0  0  0  0
 21 20  1  0  0  0  0
 22 20  1  0  0  0  0
 22 60  1  0  0  0  0
 22 58  1  0  0  0  0
 23 18  1  0  0  0  0
 23 24  1  0  0  0  0
 24 63  1  1  0  0  0
 24 25  1  0  0  0  0
 26 64  1  0  0  0  0
 27 24  1  0  0  0  0
 27 28  1  0  0  0  0
 28 29  1  0  0  0  0
 28 30  2  0  0  0  0
 29 69  1  0  0  0  0
 29 71  1  0  0  0  0
 30 31  1  0  0  0  0
 34  6  1  0  0  0  0
 35  7  1  0  0  0  0
 37  7  1  0  0  0  0
 38  8  1  0  0  0  0
 41  9  1  0  0  0  0
 43  9  1  0  0  0  0
 44 10  1  0  0  0  0
 45 10  1  0  0  0  0
 49 13  1  0  0  0  0
 51 13  1  0  0  0  0
 53 15  1  0  0  0  0
 55 21  1  0  0  0  0
 56 21  1  0  0  0  0
 59 22  1  0  0  0  0
 61 23  1  0  0  0  0
 62 23  1  0  0  0  0
 65 26  1  0  0  0  0
 66 26  1  0  0  0  0
 67 27  1  0  0  0  0
 68 27  1  0  0  0  0
 70 29  1  0  0  0  0
 72 30  1  0  0  0  0
M  END
$$$$
