S18a
     RDKit          3D

 45 46  0  0  1  0  0  0  0  0999 V2000
   -4.6064    0.1477    1.0791 O   0  0  0  0  0  0  0  0  0  0  0  0
   -5.2061   -0.5417   -0.0195 C   0  0  0  0  0  0  0  0  0  0  0  0
   -4.2259   -1.5020   -0.6923 C   0  0  0  0  0  0  0  0  0  0  0  0
   -3.4650   -2.2300    0.3060 N   0  0  0  0  0  0  0  0  0  0  0  0
   -2.4544   -1.6894    1.0655 C   0  0  0  0  0  0  0  0  0  0  0  0
   -1.7232   -0.5056    0.5576 C   0  0  0  0  0  0  0  0  0  0  0  0
   -2.2762    0.7699    0.3684 C   0  0  0  0  0  0  0  0  0  0  0  0
   -3.6971    1.1726    0.7037 C   0  0  0  0  0  0  0  0  0  0  0  0
   -2.0678   -2.2501    2.0864 O   0  0  0  0  0  0  0  0  0  0  0  0
   -0.3729   -0.7633    0.2523 C   0  0  0  0  0  0  0  0  0  0  0  0
    0.4416    0.2248   -0.2964 C   0  0  0  0  0  0  0  0  0  0  0  0
   -0.0887    1.5032   -0.5302 C   0  0  0  0  0  0  0  0  0  0  0  0
   -1.4153    1.7720   -0.1368 C   0  0  0  0  0  0  0  0  0  0  0  0
   -1.9269    3.0401   -0.3100 O   0  0  0  0  0  0  0  0  0  0  0  0
   -1.5677    3.8794    0.7931 C   0  0  0  0  0  0  0  0  0  0  0  0
    0.7759    2.5596   -1.1698 C   0  0  0  0  0  0  0  0  0  0  0  0
    1.7541    0.0492   -0.6498 O   0  0  0  0  0  0  0  0  0  0  0  0
    2.3644   -1.2081   -0.3500 C   0  0  0  0  0  0  0  0  0  0  0  0
    3.7804   -1.1386   -0.8439 C   0  0  0  0  0  0  0  0  0  0  0  0
    4.9177   -1.4389   -0.1858 C   0  0  0  0  0  0  0  0  0  0  0  0
    4.9997   -1.9380    1.2304 C   0  0  0  0  0  0  0  0  0  0  0  0
    6.2552   -1.2857   -0.8637 C   0  0  0  0  0  0  0  0  0  0  0  0
   -6.0329   -1.1226    0.4040 H   0  0  0  0  0  0  0  0  0  0  0  0
   -5.6404    0.1623   -0.7381 H   0  0  0  0  0  0  0  0  0  0  0  0
   -3.5369   -0.9632   -1.3493 H   0  0  0  0  0  0  0  0  0  0  0  0
   -4.7665   -2.2312   -1.3039 H   0  0  0  0  0  0  0  0  0  0  0  0
   -3.9261   -2.9947    0.7838 H   0  0  0  0  0  0  0  0  0  0  0  0
   -3.6461    1.8399    1.5711 H   0  0  0  0  0  0  0  0  0  0  0  0
   -4.1331    1.7500   -0.1215 H   0  0  0  0  0  0  0  0  0  0  0  0
    0.0027   -1.7652    0.4415 H   0  0  0  0  0  0  0  0  0  0  0  0
   -2.0231    4.8593    0.6255 H   0  0  0  0  0  0  0  0  0  0  0  0
   -0.4844    4.0151    0.8645 H   0  0  0  0  0  0  0  0  0  0  0  0
   -1.9577    3.4846    1.7374 H   0  0  0  0  0  0  0  0  0  0  0  0
    1.2867    2.1560   -2.0508 H   0  0  0  0  0  0  0  0  0  0  0  0
    1.5211    2.9179   -0.4533 H   0  0  0  0  0  0  0  0  0  0  0  0
    0.1942    3.4171   -1.5200 H   0  0  0  0  0  0  0  0  0  0  0  0
    2.3115   -1.3944    0.7261 H   0  0  0  0  0  0  0  0  0  0  0  0
    1.8542   -2.0105   -0.8963 H   0  0  0  0  0  0  0  0  0  0  0  0
    3.8573   -0.7932   -1.8748 H   0  0  0  0  0  0  0  0  0  0  0  0
    4.0252   -2.0971    1.6960 H   0  0  0  0  0  0  0  0  0  0  0  0
    5.5324   -2.8948    1.2613 H   0  0  0  0  0  0  0  0  0  0  0  0
    5.5502   -1.2212    1.8482 H   0  0  0  0  0  0  0  0  0  0  0  0
    6.1638   -0.9009   -1.8851 H   0  0  0  0  0  0  0  0  0  0  0  0
    6.8860   -0.5882   -0.3031 H   0  0  0  0  0  0  0  0  0  0  0  0
    6.7666   -2.2521   -0.9167 H   0  0  0  0  0  0  0  0  0  0  0  0
  1  2  1  0
  1  8  1  0
  2  3  1  0
  2 23  1  0
  2 24  1  0
  3  4  1  0
  3 25  1  0
  3 26  1  0
  4  5  1  0
  4 27  1  0
  5  6  1  0
  5  9  2  0
  6  7  2  0
  6 10  1  0
  7  8  1  0
  7 13  1  0
  8 28  1  0
  8 29  1  0
 10 11  2  0
 10 30  1  0
 11 12  1  0
 11 17  1  0
 12 13  2  0
 12 16  1  0
 13 14  1  0
 14 15  1  0
 15 31  1  0
 15 32  1  0
 15 33  1  0
 16 34  1  0
 16 35  1  0
 16 36  1  0
 17 18  1  0
 18 19  1  0
 18 37  1  0
 18 38  1  0
 19 20  2  0
 19 39  1  0
 20 21  1  0
 20 22  1  0
 21 40  1  0
 21 41  1  0
 21 42  1  0
 22 43  1  0
 22 44  1  0
 22 45  1  0
M  END
$$$$
