S18b
     RDKit          3D

 45 46  0  0  1  0  0  0  0  0999 V2000
   -1.4049    1.0962   -1.1297 C   0  0  0  0  0  0  0  0  0  0  0  0
   -2.0151    0.1675   -0.3108 C   0  0  0  0  0  0  0  0  0  0  0  0
   -1.2392   -0.7419    0.3969 C   0  0  0  0  0  0  0  0  0  0  0  0
    0.1406   -0.7787    0.3223 C   0  0  0  0  0  0  0  0  0  0  0  0
    0.7669    0.1325   -0.5330 C   0  0  0  0  0  0  0  0  0  0  0  0
   -0.0048    1.0618   -1.2872 C   0  0  0  0  0  0  0  0  0  0  0  0
   -2.1354   -1.5800    1.1999 C   0  0  0  0  0  0  0  0  0  0  0  0
   -3.4280   -1.1961    0.8836 N   0  0  0  0  0  0  0  0  0  0  0  0
   -3.4592   -0.0532   -0.0167 C   0  0  0  0  0  0  0  0  0  0  0  0
   -1.7633   -2.4156    2.0011 O   0  0  0  0  0  0  0  0  0  0  0  0
   -4.5934   -1.6791    1.6098 C   0  0  0  0  0  0  0  0  0  0  0  0
   -5.9174   -1.5951    0.8466 C   0  0  0  0  0  0  0  0  0  0  0  0
   -5.8812   -2.4052   -0.3229 O   0  0  0  0  0  0  0  0  0  0  0  0
    0.6903    2.0164   -2.2245 C   0  0  0  0  0  0  0  0  0  0  0  0
   -2.1857    1.9811   -1.8198 O   0  0  0  0  0  0  0  0  0  0  0  0
   -2.2896    3.2139   -1.1040 C   0  0  0  0  0  0  0  0  0  0  0  0
    2.1254    0.2134   -0.7146 O   0  0  0  0  0  0  0  0  0  0  0  0
    2.9478   -0.7156   -0.0056 C   0  0  0  0  0  0  0  0  0  0  0  0
    4.3656   -0.4591   -0.4278 C   0  0  0  0  0  0  0  0  0  0  0  0
    5.4527   -0.2654    0.3458 C   0  0  0  0  0  0  0  0  0  0  0  0
    6.7982   -0.0018   -0.2798 C   0  0  0  0  0  0  0  0  0  0  0  0
    5.4672   -0.2871    1.8492 C   0  0  0  0  0  0  0  0  0  0  0  0
    0.6740   -1.5104    0.9166 H   0  0  0  0  0  0  0  0  0  0  0  0
   -4.0240   -0.3109   -0.9163 H   0  0  0  0  0  0  0  0  0  0  0  0
   -3.8974    0.8025    0.5049 H   0  0  0  0  0  0  0  0  0  0  0  0
   -4.6630   -1.0857    2.5284 H   0  0  0  0  0  0  0  0  0  0  0  0
   -4.3953   -2.7170    1.9014 H   0  0  0  0  0  0  0  0  0  0  0  0
   -6.7314   -1.9538    1.4849 H   0  0  0  0  0  0  0  0  0  0  0  0
   -6.1399   -0.5657    0.5488 H   0  0  0  0  0  0  0  0  0  0  0  0
   -6.7631   -2.3684   -0.7301 H   0  0  0  0  0  0  0  0  0  0  0  0
   -0.0019    2.4576   -2.9483 H   0  0  0  0  0  0  0  0  0  0  0  0
    1.4569    1.4973   -2.8096 H   0  0  0  0  0  0  0  0  0  0  0  0
    1.1578    2.8251   -1.6542 H   0  0  0  0  0  0  0  0  0  0  0  0
   -2.9313    3.8835   -1.6843 H   0  0  0  0  0  0  0  0  0  0  0  0
   -2.7549    3.0643   -0.1236 H   0  0  0  0  0  0  0  0  0  0  0  0
   -1.3132    3.6963   -0.9894 H   0  0  0  0  0  0  0  0  0  0  0  0
    2.8088   -0.5785    1.0696 H   0  0  0  0  0  0  0  0  0  0  0  0
    2.6863   -1.7413   -0.2910 H   0  0  0  0  0  0  0  0  0  0  0  0
    4.4905   -0.4287   -1.5101 H   0  0  0  0  0  0  0  0  0  0  0  0
    7.1860    0.9674    0.0510 H   0  0  0  0  0  0  0  0  0  0  0  0
    7.5110   -0.7802    0.0115 H   0  0  0  0  0  0  0  0  0  0  0  0
    6.7531    0.0147   -1.3738 H   0  0  0  0  0  0  0  0  0  0  0  0
    6.2013   -1.0172    2.2068 H   0  0  0  0  0  0  0  0  0  0  0  0
    5.7458    0.6986    2.2363 H   0  0  0  0  0  0  0  0  0  0  0  0
    4.5067   -0.5582    2.2916 H   0  0  0  0  0  0  0  0  0  0  0  0
  1  2  2  0
  1  6  1  0
  1 15  1  0
  2  3  1  0
  2  9  1  0
  3  4  2  0
  3  7  1  0
  4  5  1  0
  4 23  1  0
  5  6  2  0
  5 17  1  0
  6 14  1  0
  7  8  1  0
  7 10  2  0
  8  9  1  0
  8 11  1  0
  9 24  1  0
  9 25  1  0
 11 12  1  0
 11 26  1  0
 11 27  1  0
 12 13  1  0
 12 28  1  0
 12 29  1  0
 13 30  1  0
 14 31  1  0
 14 32  1  0
 14 33  1  0
 15 16  1  0
 16 34  1  0
 16 35  1  0
 16 36  1  0
 17 18  1  0
 18 19  1  0
 18 37  1  0
 18 38  1  0
 19 20  2  0
 19 39  1  0
 20 21  1  0
 20 22  1  0
 21 40  1  0
 21 41  1  0
 21 42  1  0
 22 43  1  0
 22 44  1  0
 22 45  1  0
M  END
$$$$
