
 OpenBabel11301904043D

 55 57  0  0  1  0  0  0  0  0999 V2000
   -2.7646    1.8469    1.7154 C   0  0  1  0  0  0  0  0  0  0  0  0
   -3.2808    1.5221    3.1189 C   0  0  1  0  0  0  0  0  0  0  0  0
   -3.3933   -0.0191    3.2321 C   0  0  2  0  0  0  0  0  0  0  0  0
   -2.4032   -0.5733    2.1713 C   0  0  2  0  0  0  0  0  0  0  0  0
   -2.0623    0.5705    1.1606 C   0  0  2  0  0  0  0  0  0  0  0  0
   -2.0881    2.7097    1.7351 H   0  0  0  0  0  0  0  0  0  0  0  0
   -2.5793    1.9081    3.8662 H   0  0  0  0  0  0  0  0  0  0  0  0
   -3.0321   -0.2892    4.2293 H   0  0  0  0  0  0  0  0  0  0  0  0
   -1.5049   -0.8958    2.7118 H   0  0  0  0  0  0  0  0  0  0  0  0
   -3.9516    2.2344    1.0207 O   0  0  0  0  0  0  0  0  0  0  0  0
   -4.5397    2.1902    3.2631 O   0  0  0  0  0  0  0  0  0  0  0  0
   -4.8141    2.8273    2.0048 C   0  0  0  0  0  0  0  0  0  0  0  0
   -4.5675    4.3588    2.1311 C   0  0  0  0  0  0  0  0  0  0  0  0
   -6.2780    2.5386    1.5856 C   0  0  0  0  0  0  0  0  0  0  0  0
   -0.5824    0.7238    1.0333 C   0  0  0  0  0  0  0  0  0  0  0  0
    0.0731    1.2750    1.9512 O   0  0  0  0  0  0  0  0  0  0  0  0
    0.0701    0.1909   -0.0435 O   0  0  0  0  0  0  0  0  0  0  0  0
    1.4767    0.2472   -0.3041 C   0  0  0  0  0  0  0  0  0  0  0  0
   -4.7665   -0.4349    3.0041 O   0  0  0  0  0  0  0  0  0  0  0  0
   -5.4373   -1.5974    3.9618 Si  0  0  0  0  0  0  0  0  0  0  0  0
   -4.6661   -3.1313    3.6274 C   0  0  0  0  0  0  0  0  0  0  0  0
   -5.1799   -1.1798    5.6459 C   0  0  0  0  0  0  0  0  0  0  0  0
   -7.1759   -1.6539    3.5804 C   0  0  0  0  0  0  0  0  0  0  0  0
   -7.8710   -0.3389    4.0715 C   0  0  0  0  0  0  0  0  0  0  0  0
   -7.3921   -1.7772    2.0344 C   0  0  0  0  0  0  0  0  0  0  0  0
   -7.8739   -2.8732    4.2701 C   0  0  0  0  0  0  0  0  0  0  0  0
    2.0361   -0.1726    0.5339 H   0  0  0  0  0  0  0  0  0  0  0  0
    1.6983   -0.3330   -1.2007 H   0  0  0  0  0  0  0  0  0  0  0  0
    1.7818    1.2818   -0.4664 H   0  0  0  0  0  0  0  0  0  0  0  0
   -4.7241    4.8518    1.1686 H   0  0  0  0  0  0  0  0  0  0  0  0
   -5.2476    4.7960    2.8655 H   0  0  0  0  0  0  0  0  0  0  0  0
   -3.5446    4.5586    2.4546 H   0  0  0  0  0  0  0  0  0  0  0  0
   -6.5084    3.0276    0.6368 H   0  0  0  0  0  0  0  0  0  0  0  0
   -6.9774    2.8975    2.3439 H   0  0  0  0  0  0  0  0  0  0  0  0
   -6.4207    1.4665    1.4577 H   0  0  0  0  0  0  0  0  0  0  0  0
   -7.4235    0.5410    3.6088 H   0  0  0  0  0  0  0  0  0  0  0  0
   -8.9339   -0.3427    3.8192 H   0  0  0  0  0  0  0  0  0  0  0  0
   -7.7973   -0.2295    5.1547 H   0  0  0  0  0  0  0  0  0  0  0  0
   -7.4893   -3.8212    3.8876 H   0  0  0  0  0  0  0  0  0  0  0  0
   -7.7327   -2.8576    5.3520 H   0  0  0  0  0  0  0  0  0  0  0  0
   -8.9500   -2.8595    4.0804 H   0  0  0  0  0  0  0  0  0  0  0  0
   -6.9382   -2.6866    1.6355 H   0  0  0  0  0  0  0  0  0  0  0  0
   -8.4572   -1.8118    1.7934 H   0  0  0  0  0  0  0  0  0  0  0  0
   -6.9667   -0.9245    1.5045 H   0  0  0  0  0  0  0  0  0  0  0  0
   -5.8445   -1.7486    6.2947 H   0  0  0  0  0  0  0  0  0  0  0  0
   -4.1523   -1.4046    5.9346 H   0  0  0  0  0  0  0  0  0  0  0  0
   -5.3613   -0.1145    5.7885 H   0  0  0  0  0  0  0  0  0  0  0  0
   -5.0760   -3.9062    4.2755 H   0  0  0  0  0  0  0  0  0  0  0  0
   -3.5943   -3.0547    3.8174 H   0  0  0  0  0  0  0  0  0  0  0  0
   -4.8194   -3.4182    2.5869 H   0  0  0  0  0  0  0  0  0  0  0  0
   -2.5901    0.3072   -0.1473 O   0  0  0  0  0  0  0  0  0  0  0  0
   -2.8895   -1.7478    1.5218 O   0  0  0  0  0  0  0  0  0  0  0  0
   -3.2815   -1.2429   -0.0519 S   0  0  0  0  0  0  0  0  0  0  0  0
   -4.8676   -1.1493   -0.2229 O   0  0  0  0  0  0  0  0  0  0  0  0
   -2.5920   -2.2108   -1.1232 O   0  0  0  0  0  0  0  0  0  0  0  0
  1  5  1  6  0  0  0
  1  6  1  0  0  0  0
  2  1  1  6  0  0  0
  2  3  1  0  0  0  0
  2 11  1  0  0  0  0
  2  7  1  0  0  0  0
  3  4  1  6  0  0  0
  3  8  1  0  0  0  0
  4  5  1  6  0  0  0
  4  9  1  0  0  0  0
  5 15  1  6  0  0  0
 10  1  1  0  0  0  0
 10 12  1  0  0  0  0
 12 13  1  0  0  0  0
 12 11  1  0  0  0  0
 13 32  1  0  0  0  0
 13 31  1  0  0  0  0
 14 12  1  0  0  0  0
 14 34  1  0  0  0  0
 15 16  2  0  0  0  0
 17 15  1  0  0  0  0
 18 17  1  0  0  0  0
 18 27  1  0  0  0  0
 19  3  1  0  0  0  0
 19 20  1  0  0  0  0
 20 22  1  0  0  0  0
 21 49  1  0  0  0  0
 21 20  1  0  0  0  0
 21 48  1  0  0  0  0
 22 47  1  0  0  0  0
 22 46  1  0  0  0  0
 22 45  1  0  0  0  0
 23 20  1  0  0  0  0
 23 24  1  0  0  0  0
 23 26  1  0  0  0  0
 24 38  1  0  0  0  0
 25 23  1  0  0  0  0
 26 40  1  0  0  0  0
 28 18  1  0  0  0  0
 29 18  1  0  0  0  0
 30 13  1  0  0  0  0
 33 14  1  0  0  0  0
 35 14  1  0  0  0  0
 36 24  1  0  0  0  0
 37 24  1  0  0  0  0
 39 26  1  0  0  0  0
 41 26  1  0  0  0  0
 42 25  1  0  0  0  0
 43 25  1  0  0  0  0
 44 25  1  0  0  0  0
 50 21  1  0  0  0  0
 51 53  1  0  0  0  0
 51  5  1  0  0  0  0
 52  4  1  0  0  0  0
 53 52  1  0  0  0  0
 54 53  2  0  0  0  0
 55 53  2  0  0  0  0
M  END
$$$$
