
 OpenBabel11301904043D

 55 57  0  0  1  0  0  0  0  0999 V2000
   -1.7615   -0.2872    2.6352 C   0  0  1  0  0  0  0  0  0  0  0  0
   -2.3033   -1.4818    1.8218 C   0  0  1  0  0  0  0  0  0  0  0  0
   -2.9086   -0.9230    0.4930 C   0  0  2  0  0  0  0  0  0  0  0  0
   -2.7790    0.6015    0.6945 C   0  0  1  0  0  0  0  0  0  0  0  0
   -1.5225    0.8129    1.5717 C   0  0  2  0  0  0  0  0  0  0  0  0
   -0.8563   -0.5465    3.1953 H   0  0  0  0  0  0  0  0  0  0  0  0
   -1.5040   -2.1928    1.5931 H   0  0  0  0  0  0  0  0  0  0  0  0
   -2.3093   -1.2586   -0.3584 H   0  0  0  0  0  0  0  0  0  0  0  0
   -3.6891    0.8921    1.2472 H   0  0  0  0  0  0  0  0  0  0  0  0
   -2.8085    0.0095    3.5572 O   0  0  0  0  0  0  0  0  0  0  0  0
   -3.2570   -2.1199    2.6743 O   0  0  0  0  0  0  0  0  0  0  0  0
   -3.4757   -1.2430    3.7916 C   0  0  0  0  0  0  0  0  0  0  0  0
   -2.9164   -1.9288    5.0657 C   0  0  0  0  0  0  0  0  0  0  0  0
   -4.9939   -0.9609    3.9252 C   0  0  0  0  0  0  0  0  0  0  0  0
   -0.1694    0.5594    0.9742 C   0  0  0  0  0  0  0  0  0  0  0  0
    0.8446    0.9064    1.6287 O   0  0  0  0  0  0  0  0  0  0  0  0
   -0.0334   -0.0678   -0.2316 O   0  0  0  0  0  0  0  0  0  0  0  0
    1.2009   -0.4755   -0.8271 C   0  0  0  0  0  0  0  0  0  0  0  0
   -4.2874   -1.3300    0.4108 O   0  0  0  0  0  0  0  0  0  0  0  0
   -5.0322   -1.5322   -1.0344 Si  0  0  0  0  0  0  0  0  0  0  0  0
   -4.8150   -0.1242   -2.0445 C   0  0  0  0  0  0  0  0  0  0  0  0
   -4.3253   -2.9178   -1.8332 C   0  0  0  0  0  0  0  0  0  0  0  0
   -6.7447   -1.8016   -0.6289 C   0  0  0  0  0  0  0  0  0  0  0  0
   -6.8502   -2.9435    0.4407 C   0  0  0  0  0  0  0  0  0  0  0  0
   -7.3505   -0.5026    0.0034 C   0  0  0  0  0  0  0  0  0  0  0  0
   -7.5911   -2.1835   -1.8883 C   0  0  0  0  0  0  0  0  0  0  0  0
    1.7298   -1.1381   -0.1394 H   0  0  0  0  0  0  0  0  0  0  0  0
    0.9933   -1.0238   -1.7464 H   0  0  0  0  0  0  0  0  0  0  0  0
    1.8254    0.3893   -1.0555 H   0  0  0  0  0  0  0  0  0  0  0  0
   -3.0559   -1.2841    5.9359 H   0  0  0  0  0  0  0  0  0  0  0  0
   -3.4294   -2.8786    5.2363 H   0  0  0  0  0  0  0  0  0  0  0  0
   -1.8492   -2.1297    4.9491 H   0  0  0  0  0  0  0  0  0  0  0  0
   -5.1833   -0.2627    4.7419 H   0  0  0  0  0  0  0  0  0  0  0  0
   -5.5397   -1.8845    4.1217 H   0  0  0  0  0  0  0  0  0  0  0  0
   -5.3790   -0.5215    3.0046 H   0  0  0  0  0  0  0  0  0  0  0  0
   -6.3181   -2.6762    1.3579 H   0  0  0  0  0  0  0  0  0  0  0  0
   -7.8917   -3.1279    0.7143 H   0  0  0  0  0  0  0  0  0  0  0  0
   -6.4367   -3.8838    0.0708 H   0  0  0  0  0  0  0  0  0  0  0  0
   -7.5259   -1.4128   -2.6602 H   0  0  0  0  0  0  0  0  0  0  0  0
   -7.2612   -3.1301   -2.3192 H   0  0  0  0  0  0  0  0  0  0  0  0
   -8.6459   -2.2988   -1.6238 H   0  0  0  0  0  0  0  0  0  0  0  0
   -7.3684    0.3219   -0.7138 H   0  0  0  0  0  0  0  0  0  0  0  0
   -8.3808   -0.6747    0.3285 H   0  0  0  0  0  0  0  0  0  0  0  0
   -6.7777   -0.1837    0.8785 H   0  0  0  0  0  0  0  0  0  0  0  0
   -4.8829   -3.1454   -2.7414 H   0  0  0  0  0  0  0  0  0  0  0  0
   -3.2942   -2.6937   -2.1075 H   0  0  0  0  0  0  0  0  0  0  0  0
   -4.3318   -3.7843   -1.1715 H   0  0  0  0  0  0  0  0  0  0  0  0
   -5.4081   -0.2233   -2.9523 H   0  0  0  0  0  0  0  0  0  0  0  0
   -3.7663   -0.0438   -2.3285 H   0  0  0  0  0  0  0  0  0  0  0  0
   -5.1134    0.7786   -1.5116 H   0  0  0  0  0  0  0  0  0  0  0  0
   -1.6136    2.1963    1.9383 O   0  0  0  0  0  0  0  0  0  0  0  0
   -2.6701    1.4936   -0.4113 O   0  0  0  0  0  0  0  0  0  0  0  0
   -2.1426    2.8837    0.4485 S   0  0  0  0  0  0  0  0  0  0  0  0
   -3.3778    3.8716    0.6833 O   0  0  0  0  0  0  0  0  0  0  0  0
   -0.9224    3.5731   -0.3193 O   0  0  0  0  0  0  0  0  0  0  0  0
  1  5  1  6  0  0  0
  1  6  1  0  0  0  0
  1 10  1  0  0  0  0
  2  3  1  6  0  0  0
  2  1  1  0  0  0  0
  2 11  1  0  0  0  0
  3  4  1  1  0  0  0
  4  9  1  0  0  0  0
  4  5  1  1  0  0  0
  5 15  1  6  0  0  0
  5 51  1  0  0  0  0
  7  2  1  0  0  0  0
  8  3  1  0  0  0  0
 10 12  1  0  0  0  0
 11 12  1  0  0  0  0
 12 14  1  0  0  0  0
 12 13  1  0  0  0  0
 13 31  1  0  0  0  0
 13 30  1  0  0  0  0
 14 34  1  0  0  0  0
 14 33  1  0  0  0  0
 15 16  2  0  0  0  0
 17 15  1  0  0  0  0
 18 17  1  0  0  0  0
 18 27  1  0  0  0  0
 19  3  1  0  0  0  0
 20 23  1  0  0  0  0
 20 19  1  0  0  0  0
 21 50  1  0  0  0  0
 21 20  1  0  0  0  0
 22 47  1  0  0  0  0
 22 20  1  0  0  0  0
 23 25  1  0  0  0  0
 23 24  1  0  0  0  0
 24 37  1  0  0  0  0
 24 36  1  0  0  0  0
 25 43  1  0  0  0  0
 25 44  1  0  0  0  0
 26 41  1  0  0  0  0
 26 23  1  0  0  0  0
 28 18  1  0  0  0  0
 29 18  1  0  0  0  0
 32 13  1  0  0  0  0
 35 14  1  0  0  0  0
 38 24  1  0  0  0  0
 39 26  1  0  0  0  0
 40 26  1  0  0  0  0
 42 25  1  0  0  0  0
 45 22  1  0  0  0  0
 46 22  1  0  0  0  0
 48 21  1  0  0  0  0
 49 21  1  0  0  0  0
 52 53  1  0  0  0  0
 52  4  1  0  0  0  0
 53 54  2  0  0  0  0
 53 51  1  0  0  0  0
 55 53  2  0  0  0  0
M  END
$$$$
