
 OpenBabel11301904043D

 55 57  0  0  1  0  0  0  0  0999 V2000
   -2.5929    0.0617   -0.4032 C   0  0  2  0  0  0  0  0  0  0  0  0
   -2.5026    1.2263   -1.3741 C   0  0  1  0  0  0  0  0  0  0  0  0
   -3.3911    2.2852   -0.6885 C   0  0  2  0  0  0  0  0  0  0  0  0
   -2.9015    2.1289    0.7934 C   0  0  2  0  0  0  0  0  0  0  0  0
   -2.2104    0.7176    0.9446 C   0  0  2  0  0  0  0  0  0  0  0  0
   -3.6210   -0.3249   -0.3244 H   0  0  0  0  0  0  0  0  0  0  0  0
   -1.4819    1.6275   -1.4602 H   0  0  0  0  0  0  0  0  0  0  0  0
   -3.1661    3.2925   -1.0505 H   0  0  0  0  0  0  0  0  0  0  0  0
   -2.1857    2.9259    1.0089 H   0  0  0  0  0  0  0  0  0  0  0  0
   -1.8164   -0.9354   -1.0580 O   0  0  0  0  0  0  0  0  0  0  0  0
   -2.8136    0.5621   -2.5901 O   0  0  0  0  0  0  0  0  0  0  0  0
   -2.1307   -0.7147   -2.4554 C   0  0  0  0  0  0  0  0  0  0  0  0
   -0.7948   -0.7129   -3.2471 C   0  0  0  0  0  0  0  0  0  0  0  0
   -3.0818   -1.8241   -2.9726 C   0  0  0  0  0  0  0  0  0  0  0  0
   -0.7417    0.7910    1.2037 C   0  0  0  0  0  0  0  0  0  0  0  0
   -0.3354    1.3627    2.2427 O   0  0  0  0  0  0  0  0  0  0  0  0
    0.1555    0.2325    0.3381 O   0  0  0  0  0  0  0  0  0  0  0  0
    1.5750    0.1795    0.4721 C   0  0  0  0  0  0  0  0  0  0  0  0
   -4.8001    1.9704   -0.7319 O   0  0  0  0  0  0  0  0  0  0  0  0
   -5.8057    2.5791   -1.8795 Si  0  0  0  0  0  0  0  0  0  0  0  0
   -5.5597    4.3025   -2.0546 C   0  0  0  0  0  0  0  0  0  0  0  0
   -5.4905    1.8045   -3.4128 C   0  0  0  0  0  0  0  0  0  0  0  0
   -7.4481    2.2258   -1.2890 C   0  0  0  0  0  0  0  0  0  0  0  0
   -7.5140    0.7576   -0.7478 C   0  0  0  0  0  0  0  0  0  0  0  0
   -7.8081    3.1953   -0.1138 C   0  0  0  0  0  0  0  0  0  0  0  0
   -8.5202    2.3809   -2.4170 C   0  0  0  0  0  0  0  0  0  0  0  0
    1.8556   -0.3741    1.3700 H   0  0  0  0  0  0  0  0  0  0  0  0
    1.9827   -0.3312   -0.3996 H   0  0  0  0  0  0  0  0  0  0  0  0
    1.9938    1.1851    0.5172 H   0  0  0  0  0  0  0  0  0  0  0  0
   -0.3210   -1.6962   -3.2028 H   0  0  0  0  0  0  0  0  0  0  0  0
   -0.9738   -0.4521   -4.2914 H   0  0  0  0  0  0  0  0  0  0  0  0
   -0.1006    0.0146   -2.8210 H   0  0  0  0  0  0  0  0  0  0  0  0
   -2.6145   -2.8053   -2.8796 H   0  0  0  0  0  0  0  0  0  0  0  0
   -3.3288   -1.6478   -4.0200 H   0  0  0  0  0  0  0  0  0  0  0  0
   -4.0074   -1.8268   -2.3959 H   0  0  0  0  0  0  0  0  0  0  0  0
   -6.8433    0.6134    0.1036 H   0  0  0  0  0  0  0  0  0  0  0  0
   -8.5254    0.5199   -0.4093 H   0  0  0  0  0  0  0  0  0  0  0  0
   -7.2457    0.0353   -1.5226 H   0  0  0  0  0  0  0  0  0  0  0  0
   -8.4739    3.3678   -2.8805 H   0  0  0  0  0  0  0  0  0  0  0  0
   -8.3865    1.6284   -3.1967 H   0  0  0  0  0  0  0  0  0  0  0  0
   -9.5262    2.2506   -2.0117 H   0  0  0  0  0  0  0  0  0  0  0  0
   -7.9446    4.2178   -0.4734 H   0  0  0  0  0  0  0  0  0  0  0  0
   -8.7410    2.8936    0.3658 H   0  0  0  0  0  0  0  0  0  0  0  0
   -7.0287    3.2019    0.6525 H   0  0  0  0  0  0  0  0  0  0  0  0
   -6.2117    2.1245   -4.1650 H   0  0  0  0  0  0  0  0  0  0  0  0
   -4.4981    2.0923   -3.7549 H   0  0  0  0  0  0  0  0  0  0  0  0
   -5.5398    0.7221   -3.3024 H   0  0  0  0  0  0  0  0  0  0  0  0
   -6.3728    4.7427   -2.6314 H   0  0  0  0  0  0  0  0  0  0  0  0
   -4.6226    4.4911   -2.5778 H   0  0  0  0  0  0  0  0  0  0  0  0
   -5.5162    4.7739   -1.0729 H   0  0  0  0  0  0  0  0  0  0  0  0
   -2.7731   -0.0615    2.0065 O   0  0  0  0  0  0  0  0  0  0  0  0
   -3.9779    2.3128    1.7191 O   0  0  0  0  0  0  0  0  0  0  0  0
   -3.8430    1.0015    2.7933 S   0  0  0  0  0  0  0  0  0  0  0  0
   -5.2680    0.2957    2.9652 O   0  0  0  0  0  0  0  0  0  0  0  0
   -3.2169    1.4823    4.1852 O   0  0  0  0  0  0  0  0  0  0  0  0
  1  2  1  6  0  0  0
  1  6  1  0  0  0  0
  2  3  1  1  0  0  0
  3  4  1  1  0  0  0
  4  5  1  1  0  0  0
  4  9  1  0  0  0  0
  4 52  1  0  0  0  0
  5  1  1  6  0  0  0
  5 15  1  0  0  0  0
  5 51  1  0  0  0  0
  7  2  1  0  0  0  0
  8  3  1  0  0  0  0
 10  1  1  0  0  0  0
 11 12  1  0  0  0  0
 11  2  1  0  0  0  0
 12 10  1  0  0  0  0
 13 30  1  0  0  0  0
 13 32  1  0  0  0  0
 13 12  1  0  0  0  0
 14 33  1  0  0  0  0
 14 12  1  0  0  0  0
 14 35  1  0  0  0  0
 15 16  2  0  0  0  0
 17 18  1  0  0  0  0
 17 15  1  0  0  0  0
 18 29  1  0  0  0  0
 18 27  1  0  0  0  0
 19  3  1  0  0  0  0
 20 23  1  0  0  0  0
 20 19  1  0  0  0  0
 21 20  1  0  0  0  0
 21 50  1  0  0  0  0
 22 47  1  0  0  0  0
 22 20  1  0  0  0  0
 23 24  1  0  0  0  0
 23 25  1  0  0  0  0
 24 37  1  0  0  0  0
 24 36  1  0  0  0  0
 25 43  1  0  0  0  0
 25 44  1  0  0  0  0
 26 41  1  0  0  0  0
 26 23  1  0  0  0  0
 28 18  1  0  0  0  0
 31 13  1  0  0  0  0
 34 14  1  0  0  0  0
 38 24  1  0  0  0  0
 39 26  1  0  0  0  0
 40 26  1  0  0  0  0
 42 25  1  0  0  0  0
 45 22  1  0  0  0  0
 46 22  1  0  0  0  0
 48 21  1  0  0  0  0
 49 21  1  0  0  0  0
 51 53  1  0  0  0  0
 52 53  1  0  0  0  0
 53 54  2  0  0  0  0
 53 55  2  0  0  0  0
M  END
$$$$
