
 OpenBabel11301904043D

 55 57  0  0  1  0  0  0  0  0999 V2000
   -2.4087    2.2426    1.1479 C   0  0  1  0  0  0  0  0  0  0  0  0
   -3.3673    2.2082   -0.0489 C   0  0  1  0  0  0  0  0  0  0  0  0
   -3.1840    0.8450   -0.7571 C   0  0  2  0  0  0  0  0  0  0  0  0
   -2.7514   -0.0793    0.4051 C   0  0  1  0  0  0  0  0  0  0  0  0
   -1.8829    0.7915    1.3709 C   0  0  1  0  0  0  0  0  0  0  0  0
   -2.9310    2.6066    2.0404 H   0  0  0  0  0  0  0  0  0  0  0  0
   -4.4000    2.3083    0.3023 H   0  0  0  0  0  0  0  0  0  0  0  0
   -4.1564    0.5483   -1.1566 H   0  0  0  0  0  0  0  0  0  0  0  0
   -2.2156   -0.9600    0.0451 H   0  0  0  0  0  0  0  0  0  0  0  0
   -1.4235    3.2107    0.7798 O   0  0  0  0  0  0  0  0  0  0  0  0
   -3.0471    3.3309   -0.8736 O   0  0  0  0  0  0  0  0  0  0  0  0
   -2.0495    4.0849   -0.1693 C   0  0  0  0  0  0  0  0  0  0  0  0
   -2.6945    5.3122    0.5338 C   0  0  0  0  0  0  0  0  0  0  0  0
   -0.9697    4.5300   -1.1848 C   0  0  0  0  0  0  0  0  0  0  0  0
   -0.4100    0.6707    1.1737 C   0  0  0  0  0  0  0  0  0  0  0  0
    0.3594    1.2051    2.0110 O   0  0  0  0  0  0  0  0  0  0  0  0
    0.1191    0.0072    0.1043 O   0  0  0  0  0  0  0  0  0  0  0  0
    1.5096   -0.2482   -0.1180 C   0  0  0  0  0  0  0  0  0  0  0  0
   -2.1852    0.9719   -1.7950 O   0  0  0  0  0  0  0  0  0  0  0  0
   -2.2370    0.0206   -3.1407 Si  0  0  0  0  0  0  0  0  0  0  0  0
   -1.6733   -1.5859   -2.7400 C   0  0  0  0  0  0  0  0  0  0  0  0
   -3.8727   -0.0966   -3.7624 C   0  0  0  0  0  0  0  0  0  0  0  0
   -1.1670    0.8195   -4.3191 C   0  0  0  0  0  0  0  0  0  0  0  0
   -1.7411    2.2385   -4.6584 C   0  0  0  0  0  0  0  0  0  0  0  0
    0.2626    0.9999   -3.7039 C   0  0  0  0  0  0  0  0  0  0  0  0
   -1.0243    0.0019   -5.6473 C   0  0  0  0  0  0  0  0  0  0  0  0
    1.8923   -0.9044    0.6652 H   0  0  0  0  0  0  0  0  0  0  0  0
    1.6312   -0.7410   -1.0811 H   0  0  0  0  0  0  0  0  0  0  0  0
    2.0800    0.6820   -0.1214 H   0  0  0  0  0  0  0  0  0  0  0  0
   -1.9485    5.8754    1.0976 H   0  0  0  0  0  0  0  0  0  0  0  0
   -3.1502    5.9731   -0.2061 H   0  0  0  0  0  0  0  0  0  0  0  0
   -3.4673    4.9889    1.2312 H   0  0  0  0  0  0  0  0  0  0  0  0
   -0.1918    5.1194   -0.6951 H   0  0  0  0  0  0  0  0  0  0  0  0
   -1.4162    5.1298   -1.9801 H   0  0  0  0  0  0  0  0  0  0  0  0
   -0.5019    3.6527   -1.6323 H   0  0  0  0  0  0  0  0  0  0  0  0
   -1.8399    2.8552   -3.7616 H   0  0  0  0  0  0  0  0  0  0  0  0
   -1.0857    2.7706   -5.3518 H   0  0  0  0  0  0  0  0  0  0  0  0
   -2.7230    2.1708   -5.1321 H   0  0  0  0  0  0  0  0  0  0  0  0
   -0.5815   -0.9792   -5.4676 H   0  0  0  0  0  0  0  0  0  0  0  0
   -1.9866   -0.1432   -6.1380 H   0  0  0  0  0  0  0  0  0  0  0  0
   -0.3775    0.5256   -6.3550 H   0  0  0  0  0  0  0  0  0  0  0  0
    0.7440    0.0366   -3.5265 H   0  0  0  0  0  0  0  0  0  0  0  0
    0.9085    1.5653   -4.3789 H   0  0  0  0  0  0  0  0  0  0  0  0
    0.2320    1.5409   -2.7569 H   0  0  0  0  0  0  0  0  0  0  0  0
   -3.8677   -0.5346   -4.7589 H   0  0  0  0  0  0  0  0  0  0  0  0
   -4.4755   -0.7371   -3.1183 H   0  0  0  0  0  0  0  0  0  0  0  0
   -4.3356    0.8885   -3.8053 H   0  0  0  0  0  0  0  0  0  0  0  0
   -1.6034   -2.1940   -3.6410 H   0  0  0  0  0  0  0  0  0  0  0  0
   -2.3778   -2.0679   -2.0625 H   0  0  0  0  0  0  0  0  0  0  0  0
   -0.6966   -1.5378   -2.2606 H   0  0  0  0  0  0  0  0  0  0  0  0
   -2.1049    0.3883    2.7325 O   0  0  0  0  0  0  0  0  0  0  0  0
   -3.9316   -0.5524    1.0608 O   0  0  0  0  0  0  0  0  0  0  0  0
   -3.4728   -0.6245    2.6955 S   0  0  0  0  0  0  0  0  0  0  0  0
   -3.0575   -2.1169    3.0929 O   0  0  0  0  0  0  0  0  0  0  0  0
   -4.6420   -0.0229    3.6060 O   0  0  0  0  0  0  0  0  0  0  0  0
  1  2  1  6  0  0  0
  1  6  1  0  0  0  0
  2  3  1  6  0  0  0
  2  7  1  0  0  0  0
  3  4  1  1  0  0  0
  4 52  1  0  0  0  0
  4  5  1  1  0  0  0
  5  1  1  6  0  0  0
  5 51  1  0  0  0  0
  8  3  1  0  0  0  0
  9  4  1  0  0  0  0
 10  1  1  0  0  0  0
 11 12  1  0  0  0  0
 11  2  1  0  0  0  0
 12 13  1  0  0  0  0
 12 10  1  0  0  0  0
 13 30  1  0  0  0  0
 13 32  1  0  0  0  0
 14 33  1  0  0  0  0
 14 12  1  0  0  0  0
 15  5  1  0  0  0  0
 15 16  2  0  0  0  0
 17 15  1  0  0  0  0
 18 17  1  0  0  0  0
 18 27  1  0  0  0  0
 19  3  1  0  0  0  0
 20 21  1  0  0  0  0
 20 19  1  0  0  0  0
 21 50  1  0  0  0  0
 21 49  1  0  0  0  0
 22 20  1  0  0  0  0
 22 46  1  0  0  0  0
 23 25  1  0  0  0  0
 23 20  1  0  0  0  0
 24 23  1  0  0  0  0
 24 36  1  0  0  0  0
 25 42  1  0  0  0  0
 25 44  1  0  0  0  0
 26 39  1  0  0  0  0
 26 23  1  0  0  0  0
 28 18  1  0  0  0  0
 29 18  1  0  0  0  0
 31 13  1  0  0  0  0
 34 14  1  0  0  0  0
 35 14  1  0  0  0  0
 37 24  1  0  0  0  0
 38 24  1  0  0  0  0
 40 26  1  0  0  0  0
 41 26  1  0  0  0  0
 43 25  1  0  0  0  0
 45 22  1  0  0  0  0
 47 22  1  0  0  0  0
 48 21  1  0  0  0  0
 52 53  1  0  0  0  0
 53 51  1  0  0  0  0
 53 54  2  0  0  0  0
 53 55  2  0  0  0  0
M  END
$$$$
