
 OpenBabel11301903563D

 50 51  0  0  1  0  0  0  0  0999 V2000
    0.7048   -2.6515   -3.8082 C   0  0  0  0  0  0  0  0  0  0  0  0
    1.9367   -3.0447   -3.0761 C   0  0  2  0  0  0  0  0  0  0  0  0
    2.7699   -1.8289   -3.5476 C   0  0  1  0  0  0  0  0  0  0  0  0
    1.7919   -0.6340   -3.6028 C   0  0  2  0  0  0  0  0  0  0  0  0
    0.7097   -1.3454   -4.1935 N   0  0  0  0  0  0  0  0  0  0  0  0
    2.7584    0.2811   -4.2274 C   0  0  0  0  0  0  0  0  0  0  0  0
    4.0125    0.0282   -3.7312 O   0  0  0  0  0  0  0  0  0  0  0  0
    4.0889   -1.2322   -3.0285 C   0  0  0  0  0  0  0  0  0  0  0  0
    3.0612   -2.1338   -4.5789 H   0  0  0  0  0  0  0  0  0  0  0  0
    1.3199    0.0561   -2.3669 C   0  0  0  0  0  0  0  0  0  0  0  0
    0.4316    0.9322   -2.4898 O   0  0  0  0  0  0  0  0  0  0  0  0
    1.8578   -0.2302   -1.1408 O   0  0  0  0  0  0  0  0  0  0  0  0
    1.6412    0.3631    0.1583 C   0  0  0  0  0  0  0  0  0  0  0  0
    0.1412    0.2853    0.5767 C   0  0  0  0  0  0  0  0  0  0  0  0
    2.1541    1.8336    0.1409 C   0  0  0  0  0  0  0  0  0  0  0  0
    2.4992   -0.4786    1.1495 C   0  0  0  0  0  0  0  0  0  0  0  0
   -0.2227   -3.4433   -4.0868 O   0  0  0  0  0  0  0  0  0  0  0  0
    1.7363   -3.2598   -1.5470 C   0  0  0  0  0  0  0  0  0  0  0  0
    1.4333   -4.6691   -1.2403 C   0  0  0  0  0  0  0  0  0  0  0  0
    0.2830   -5.1187   -1.4534 O   0  0  0  0  0  0  0  0  0  0  0  0
    2.4472   -5.4536   -0.7690 O   0  0  0  0  0  0  0  0  0  0  0  0
    2.4897   -6.8619   -0.4698 C   0  0  0  0  0  0  0  0  0  0  0  0
    2.2251   -7.6880   -1.7633 C   0  0  0  0  0  0  0  0  0  0  0  0
    1.4723   -7.2266    0.6518 C   0  0  0  0  0  0  0  0  0  0  0  0
    3.9436   -7.1097    0.0281 C   0  0  0  0  0  0  0  0  0  0  0  0
    2.4829    1.2022   -5.0275 O   0  0  0  0  0  0  0  0  0  0  0  0
    2.3662   -3.9474   -3.5263 H   0  0  0  0  0  0  0  0  0  0  0  0
    0.0193   -0.9388   -4.7445 H   0  0  0  0  0  0  0  0  0  0  0  0
    4.1143   -1.0944   -1.9465 H   0  0  0  0  0  0  0  0  0  0  0  0
    4.9543   -1.8143   -3.3551 H   0  0  0  0  0  0  0  0  0  0  0  0
   -0.2218   -0.7410    0.4985 H   0  0  0  0  0  0  0  0  0  0  0  0
    0.0056    0.6222    1.6069 H   0  0  0  0  0  0  0  0  0  0  0  0
   -0.4784    0.9124   -0.0644 H   0  0  0  0  0  0  0  0  0  0  0  0
    1.5520    2.4464   -0.5318 H   0  0  0  0  0  0  0  0  0  0  0  0
    3.1888    1.8675   -0.2080 H   0  0  0  0  0  0  0  0  0  0  0  0
    2.1112    2.2755    1.1397 H   0  0  0  0  0  0  0  0  0  0  0  0
    3.5461   -0.4888    0.8378 H   0  0  0  0  0  0  0  0  0  0  0  0
    2.4460   -0.0692    2.1618 H   0  0  0  0  0  0  0  0  0  0  0  0
    2.1473   -1.5122    1.1803 H   0  0  0  0  0  0  0  0  0  0  0  0
    2.6566   -2.9826   -1.0287 H   0  0  0  0  0  0  0  0  0  0  0  0
    0.9322   -2.6363   -1.1486 H   0  0  0  0  0  0  0  0  0  0  0  0
    2.3263   -8.7568   -1.5666 H   0  0  0  0  0  0  0  0  0  0  0  0
    1.2185   -7.5077   -2.1431 H   0  0  0  0  0  0  0  0  0  0  0  0
    2.9322   -7.4104   -2.5481 H   0  0  0  0  0  0  0  0  0  0  0  0
    1.6057   -6.5690    1.5142 H   0  0  0  0  0  0  0  0  0  0  0  0
    0.4464   -7.1198    0.2956 H   0  0  0  0  0  0  0  0  0  0  0  0
    1.6080   -8.2613    0.9766 H   0  0  0  0  0  0  0  0  0  0  0  0
    4.6642   -6.8060   -0.7349 H   0  0  0  0  0  0  0  0  0  0  0  0
    4.1439   -6.5249    0.9287 H   0  0  0  0  0  0  0  0  0  0  0  0
    4.1081   -8.1651    0.2532 H   0  0  0  0  0  0  0  0  0  0  0  0
  1  2  1  0  0  0  0
  2  3  1  6  0  0  0
  2 18  1  0  0  0  0
  3  4  1  6  0  0  0
  3  8  1  0  0  0  0
  4 10  1  1  0  0  0
  5  1  1  0  0  0  0
  5  4  1  0  0  0  0
  6  7  1  0  0  0  0
  6  4  1  0  0  0  0
  7  8  1  0  0  0  0
  8 29  1  0  0  0  0
  9  3  1  0  0  0  0
 10 12  1  0  0  0  0
 11 10  2  0  0  0  0
 12 13  1  0  0  0  0
 13 14  1  0  0  0  0
 13 16  1  0  0  0  0
 14 32  1  0  0  0  0
 15 13  1  0  0  0  0
 15 36  1  0  0  0  0
 16 39  1  0  0  0  0
 16 38  1  0  0  0  0
 17  1  2  0  0  0  0
 18 19  1  0  0  0  0
 18 41  1  0  0  0  0
 18 40  1  0  0  0  0
 19 21  1  0  0  0  0
 20 19  2  0  0  0  0
 21 22  1  0  0  0  0
 22 25  1  0  0  0  0
 22 24  1  0  0  0  0
 23 42  1  0  0  0  0
 23 22  1  0  0  0  0
 24 47  1  0  0  0  0
 24 45  1  0  0  0  0
 25 50  1  0  0  0  0
 25 49  1  0  0  0  0
 26  6  2  0  0  0  0
 27  2  1  0  0  0  0
 28  5  1  0  0  0  0
 30  8  1  0  0  0  0
 31 14  1  0  0  0  0
 33 14  1  0  0  0  0
 34 15  1  0  0  0  0
 35 15  1  0  0  0  0
 37 16  1  0  0  0  0
 43 23  1  0  0  0  0
 44 23  1  0  0  0  0
 46 24  1  0  0  0  0
 48 25  1  0  0  0  0
M  END
$$$$
