
 OpenBabel11301904033D

 50 51  0  0  1  0  0  0  0  0999 V2000
   -2.9025    1.3939    2.0215 C   0  0  1  0  0  0  0  0  0  0  0  0
   -4.3055    0.9255    1.6185 C   0  0  2  0  0  0  0  0  0  0  0  0
   -4.1359    0.1447    0.2940 C   0  0  1  0  0  0  0  0  0  0  0  0
   -2.7246   -0.1208    0.3164 C   0  0  0  0  0  0  0  0  0  0  0  0
   -2.0249    0.6063    1.1900 C   0  0  0  0  0  0  0  0  0  0  0  0
   -2.7585    2.4613    1.8339 H   0  0  0  0  0  0  0  0  0  0  0  0
   -5.0018    1.7640    1.5239 H   0  0  0  0  0  0  0  0  0  0  0  0
   -4.7154   -0.7800    0.3406 H   0  0  0  0  0  0  0  0  0  0  0  0
   -2.3102   -0.7817   -0.2902 H   0  0  0  0  0  0  0  0  0  0  0  0
   -2.7539    1.1015    3.4122 O   0  0  0  0  0  0  0  0  0  0  0  0
   -4.7125    0.0671    2.6860 O   0  0  0  0  0  0  0  0  0  0  0  0
   -3.9703    0.4725    3.8448 C   0  0  0  0  0  0  0  0  0  0  0  0
   -4.8234    1.4490    4.6994 C   0  0  0  0  0  0  0  0  0  0  0  0
   -3.6003   -0.7926    4.6596 C   0  0  0  0  0  0  0  0  0  0  0  0
   -0.6392    0.6174    1.2474 C   0  0  0  0  0  0  0  0  0  0  0  0
   -0.0318    1.1978    2.1775 O   0  0  0  0  0  0  0  0  0  0  0  0
    0.0709    0.0220    0.2429 O   0  0  0  0  0  0  0  0  0  0  0  0
    1.4883   -0.0101    0.0755 C   0  0  0  0  0  0  0  0  0  0  0  0
   -4.5347    0.9760   -0.8266 O   0  0  0  0  0  0  0  0  0  0  0  0
   -4.5550    0.3654   -2.3618 Si  0  0  0  0  0  0  0  0  0  0  0  0
   -2.9140    0.0518   -2.8935 C   0  0  0  0  0  0  0  0  0  0  0  0
   -5.4662   -1.1285   -2.3763 C   0  0  0  0  0  0  0  0  0  0  0  0
   -5.3129    1.5958   -3.4014 C   0  0  0  0  0  0  0  0  0  0  0  0
   -6.7831    1.8627   -2.9366 C   0  0  0  0  0  0  0  0  0  0  0  0
   -4.5151    2.9399   -3.3065 C   0  0  0  0  0  0  0  0  0  0  0  0
   -5.3469    1.1473   -4.9014 C   0  0  0  0  0  0  0  0  0  0  0  0
    1.9587   -0.5223    0.9167 H   0  0  0  0  0  0  0  0  0  0  0  0
    1.7078   -0.5516   -0.8443 H   0  0  0  0  0  0  0  0  0  0  0  0
    1.8817    1.0051   -0.0090 H   0  0  0  0  0  0  0  0  0  0  0  0
   -5.0429    2.3569    4.1363 H   0  0  0  0  0  0  0  0  0  0  0  0
   -4.2938    1.7289    5.6121 H   0  0  0  0  0  0  0  0  0  0  0  0
   -5.7699    0.9794    4.9752 H   0  0  0  0  0  0  0  0  0  0  0  0
   -4.5004   -1.3392    4.9473 H   0  0  0  0  0  0  0  0  0  0  0  0
   -2.9719   -1.4533    4.0601 H   0  0  0  0  0  0  0  0  0  0  0  0
   -3.0503   -0.5229    5.5641 H   0  0  0  0  0  0  0  0  0  0  0  0
   -6.8229    2.1857   -1.8937 H   0  0  0  0  0  0  0  0  0  0  0  0
   -7.2408    2.6484   -3.5420 H   0  0  0  0  0  0  0  0  0  0  0  0
   -7.4043    0.9715   -3.0433 H   0  0  0  0  0  0  0  0  0  0  0  0
   -4.3438    1.0503   -5.3176 H   0  0  0  0  0  0  0  0  0  0  0  0
   -5.8634    0.1945   -5.0234 H   0  0  0  0  0  0  0  0  0  0  0  0
   -5.8730    1.8856   -5.5097 H   0  0  0  0  0  0  0  0  0  0  0  0
   -3.4784    2.8149   -3.6281 H   0  0  0  0  0  0  0  0  0  0  0  0
   -4.9659    3.6991   -3.9509 H   0  0  0  0  0  0  0  0  0  0  0  0
   -4.5112    3.3333   -2.2864 H   0  0  0  0  0  0  0  0  0  0  0  0
   -5.5765   -1.5002   -3.3943 H   0  0  0  0  0  0  0  0  0  0  0  0
   -6.4512   -0.9664   -1.9402 H   0  0  0  0  0  0  0  0  0  0  0  0
   -4.9438   -1.8855   -1.7906 H   0  0  0  0  0  0  0  0  0  0  0  0
   -2.8478   -0.0065   -3.9757 H   0  0  0  0  0  0  0  0  0  0  0  0
   -2.5685   -0.9037   -2.5056 H   0  0  0  0  0  0  0  0  0  0  0  0
   -2.2534    0.8449   -2.5429 H   0  0  0  0  0  0  0  0  0  0  0  0
  1  2  1  6  0  0  0
  1 10  1  0  0  0  0
  2  3  1  6  0  0  0
  2 11  1  0  0  0  0
  3  4  1  0  0  0  0
  3  8  1  1  0  0  0
  4  5  2  0  0  0  0
  5 15  1  0  0  0  0
  5  1  1  0  0  0  0
  6  1  1  0  0  0  0
  7  2  1  0  0  0  0
  9  4  1  0  0  0  0
 10 12  1  0  0  0  0
 11 12  1  0  0  0  0
 12 14  1  0  0  0  0
 12 13  1  0  0  0  0
 13 32  1  0  0  0  0
 13 31  1  0  0  0  0
 14 33  1  0  0  0  0
 14 35  1  0  0  0  0
 15 16  2  0  0  0  0
 17 15  1  0  0  0  0
 18 17  1  0  0  0  0
 18 27  1  0  0  0  0
 19  3  1  0  0  0  0
 20 19  1  0  0  0  0
 21 50  1  0  0  0  0
 21 49  1  0  0  0  0
 21 20  1  0  0  0  0
 22 20  1  0  0  0  0
 22 46  1  0  0  0  0
 22 47  1  0  0  0  0
 23 25  1  0  0  0  0
 23 24  1  0  0  0  0
 23 20  1  0  0  0  0
 24 36  1  0  0  0  0
 25 44  1  0  0  0  0
 26 23  1  0  0  0  0
 28 18  1  0  0  0  0
 29 18  1  0  0  0  0
 30 13  1  0  0  0  0
 34 14  1  0  0  0  0
 37 24  1  0  0  0  0
 38 24  1  0  0  0  0
 39 26  1  0  0  0  0
 40 26  1  0  0  0  0
 41 26  1  0  0  0  0
 42 25  1  0  0  0  0
 43 25  1  0  0  0  0
 45 22  1  0  0  0  0
 48 21  1  0  0  0  0
M  END
$$$$
