
 OpenBabel11301904033D

 50 51  0  0  1  0  0  0  0  0999 V2000
   -2.7092    1.3696    2.0954 C   0  0  2  0  0  0  0  0  0  0  0  0
   -4.1398    0.9957    1.6867 C   0  0  1  0  0  0  0  0  0  0  0  0
   -4.0048    0.1747    0.3789 C   0  0  1  0  0  0  0  0  0  0  0  0
   -2.5978   -0.0995    0.3476 C   0  0  0  0  0  0  0  0  0  0  0  0
   -1.8651    0.6072    1.2099 C   0  0  0  0  0  0  0  0  0  0  0  0
   -2.5130    1.1061    3.1402 H   0  0  0  0  0  0  0  0  0  0  0  0
   -4.6230    0.4003    2.4684 H   0  0  0  0  0  0  0  0  0  0  0  0
   -4.5821   -0.7506    0.4636 H   0  0  0  0  0  0  0  0  0  0  0  0
   -2.2063   -0.7477   -0.2897 H   0  0  0  0  0  0  0  0  0  0  0  0
   -2.6203    2.7824    1.9118 O   0  0  0  0  0  0  0  0  0  0  0  0
   -4.8373    2.2355    1.5274 O   0  0  0  0  0  0  0  0  0  0  0  0
   -3.9698    3.2655    2.0239 C   0  0  0  0  0  0  0  0  0  0  0  0
   -4.3601    3.6032    3.4913 C   0  0  0  0  0  0  0  0  0  0  0  0
   -4.1168    4.5169    1.1228 C   0  0  0  0  0  0  0  0  0  0  0  0
   -0.4785    0.5921    1.2375 C   0  0  0  0  0  0  0  0  0  0  0  0
    0.1483    1.2099    2.1302 O   0  0  0  0  0  0  0  0  0  0  0  0
    0.2026   -0.0821    0.2613 O   0  0  0  0  0  0  0  0  0  0  0  0
    1.6133   -0.1967    0.0847 C   0  0  0  0  0  0  0  0  0  0  0  0
   -4.4261    0.9901   -0.7378 O   0  0  0  0  0  0  0  0  0  0  0  0
   -4.5485    0.3792   -2.2606 Si  0  0  0  0  0  0  0  0  0  0  0  0
   -2.9507    0.0516   -2.8993 C   0  0  0  0  0  0  0  0  0  0  0  0
   -5.4735   -1.1036   -2.2137 C   0  0  0  0  0  0  0  0  0  0  0  0
   -5.3710    1.6450   -3.2029 C   0  0  0  0  0  0  0  0  0  0  0  0
   -6.7857    1.9279   -2.5922 C   0  0  0  0  0  0  0  0  0  0  0  0
   -4.5300    2.9638   -3.1413 C   0  0  0  0  0  0  0  0  0  0  0  0
   -5.5560    1.2457   -4.7040 C   0  0  0  0  0  0  0  0  0  0  0  0
    2.0606   -0.7131    0.9337 H   0  0  0  0  0  0  0  0  0  0  0  0
    1.7989   -0.7736   -0.8216 H   0  0  0  0  0  0  0  0  0  0  0  0
    2.0599    0.7909   -0.0269 H   0  0  0  0  0  0  0  0  0  0  0  0
   -4.2992    2.7152    4.1215 H   0  0  0  0  0  0  0  0  0  0  0  0
   -5.3866    3.9719    3.5283 H   0  0  0  0  0  0  0  0  0  0  0  0
   -3.6985    4.3663    3.9041 H   0  0  0  0  0  0  0  0  0  0  0  0
   -3.8335    4.2744    0.0982 H   0  0  0  0  0  0  0  0  0  0  0  0
   -5.1505    4.8694    1.1225 H   0  0  0  0  0  0  0  0  0  0  0  0
   -3.4713    5.3245    1.4753 H   0  0  0  0  0  0  0  0  0  0  0  0
   -6.7242    2.1928   -1.5339 H   0  0  0  0  0  0  0  0  0  0  0  0
   -7.2703    2.7586   -3.1099 H   0  0  0  0  0  0  0  0  0  0  0  0
   -7.4417    1.0599   -2.6894 H   0  0  0  0  0  0  0  0  0  0  0  0
   -4.5981    1.1150   -5.2085 H   0  0  0  0  0  0  0  0  0  0  0  0
   -6.1272    0.3218   -4.8064 H   0  0  0  0  0  0  0  0  0  0  0  0
   -6.0977    2.0273   -5.2418 H   0  0  0  0  0  0  0  0  0  0  0  0
   -3.5407    2.8282   -3.5828 H   0  0  0  0  0  0  0  0  0  0  0  0
   -5.0253    3.7653   -3.6922 H   0  0  0  0  0  0  0  0  0  0  0  0
   -4.3990    3.3065   -2.1140 H   0  0  0  0  0  0  0  0  0  0  0  0
   -5.6783   -1.4528   -3.2238 H   0  0  0  0  0  0  0  0  0  0  0  0
   -6.4127   -0.9440   -1.6849 H   0  0  0  0  0  0  0  0  0  0  0  0
   -4.9064   -1.8755   -1.6920 H   0  0  0  0  0  0  0  0  0  0  0  0
   -2.9696    0.0185   -3.9845 H   0  0  0  0  0  0  0  0  0  0  0  0
   -2.5954   -0.9169   -2.5488 H   0  0  0  0  0  0  0  0  0  0  0  0
   -2.2533    0.8259   -2.5786 H   0  0  0  0  0  0  0  0  0  0  0  0
  1  2  1  6  0  0  0
  1  6  1  0  0  0  0
  2  3  1  6  0  0  0
  2  7  1  0  0  0  0
  3  8  1  1  0  0  0
  4  3  1  0  0  0  0
  4  5  2  0  0  0  0
  5 15  1  0  0  0  0
  5  1  1  0  0  0  0
  9  4  1  0  0  0  0
 10 12  1  0  0  0  0
 10  1  1  0  0  0  0
 11  2  1  0  0  0  0
 11 12  1  0  0  0  0
 12 13  1  0  0  0  0
 13 31  1  0  0  0  0
 13 32  1  0  0  0  0
 13 30  1  0  0  0  0
 14 35  1  0  0  0  0
 14 12  1  0  0  0  0
 15 16  2  0  0  0  0
 17 15  1  0  0  0  0
 18 17  1  0  0  0  0
 18 27  1  0  0  0  0
 19  3  1  0  0  0  0
 20 22  1  0  0  0  0
 20 19  1  0  0  0  0
 21 50  1  0  0  0  0
 21 49  1  0  0  0  0
 21 20  1  0  0  0  0
 22 47  1  0  0  0  0
 22 46  1  0  0  0  0
 23 25  1  0  0  0  0
 23 24  1  0  0  0  0
 23 20  1  0  0  0  0
 24 36  1  0  0  0  0
 25 44  1  0  0  0  0
 26 23  1  0  0  0  0
 28 18  1  0  0  0  0
 29 18  1  0  0  0  0
 33 14  1  0  0  0  0
 34 14  1  0  0  0  0
 37 24  1  0  0  0  0
 38 24  1  0  0  0  0
 39 26  1  0  0  0  0
 40 26  1  0  0  0  0
 41 26  1  0  0  0  0
 42 25  1  0  0  0  0
 43 25  1  0  0  0  0
 45 22  1  0  0  0  0
 48 21  1  0  0  0  0
M  END
$$$$
