
 OpenBabel11301904033D

 50 51  0  0  1  0  0  0  0  0999 V2000
   -2.6501    1.2095    2.6068 C   0  0  2  0  0  0  0  0  0  0  0  0
   -3.9922    1.6538    2.0524 C   0  0  2  0  0  0  0  0  0  0  0  0
   -4.3722    0.4413    1.1729 C   0  0  1  0  0  0  0  0  0  0  0  0
   -3.0348    0.1644    0.6602 C   0  0  0  0  0  0  0  0  0  0  0  0
   -2.0465    0.6712    1.4190 C   0  0  0  0  0  0  0  0  0  0  0  0
   -2.7306    0.3788    3.3289 H   0  0  0  0  0  0  0  0  0  0  0  0
   -3.9110    2.5405    1.3982 H   0  0  0  0  0  0  0  0  0  0  0  0
   -4.7198   -0.4182    1.7581 H   0  0  0  0  0  0  0  0  0  0  0  0
   -2.8787   -0.3330   -0.1866 H   0  0  0  0  0  0  0  0  0  0  0  0
   -2.2773    2.4018    3.2936 O   0  0  0  0  0  0  0  0  0  0  0  0
   -4.6121    2.0454    3.2710 O   0  0  0  0  0  0  0  0  0  0  0  0
   -3.5319    2.7576    3.9442 C   0  0  0  0  0  0  0  0  0  0  0  0
   -3.7432    4.2918    3.8315 C   0  0  0  0  0  0  0  0  0  0  0  0
   -3.4996    2.3335    5.4369 C   0  0  0  0  0  0  0  0  0  0  0  0
   -0.6859    0.6263    1.1672 C   0  0  0  0  0  0  0  0  0  0  0  0
    0.1083    1.1805    1.9645 O   0  0  0  0  0  0  0  0  0  0  0  0
   -0.2053    0.0014    0.0506 O   0  0  0  0  0  0  0  0  0  0  0  0
    1.1724   -0.1093   -0.3221 C   0  0  0  0  0  0  0  0  0  0  0  0
   -5.2336    0.7714    0.0619 O   0  0  0  0  0  0  0  0  0  0  0  0
   -6.8692    0.7847    0.2553 Si  0  0  0  0  0  0  0  0  0  0  0  0
   -7.4187   -0.8507    0.5508 C   0  0  0  0  0  0  0  0  0  0  0  0
   -7.3222    1.7778    1.6217 C   0  0  0  0  0  0  0  0  0  0  0  0
   -7.5375    1.4349   -1.2654 C   0  0  0  0  0  0  0  0  0  0  0  0
   -6.8315    2.7898   -1.6129 C   0  0  0  0  0  0  0  0  0  0  0  0
   -7.2849    0.4352   -2.4460 C   0  0  0  0  0  0  0  0  0  0  0  0
   -9.0783    1.6942   -1.1694 C   0  0  0  0  0  0  0  0  0  0  0  0
    1.7267   -0.6692    0.4338 H   0  0  0  0  0  0  0  0  0  0  0  0
    1.2371   -0.6379   -1.2734 H   0  0  0  0  0  0  0  0  0  0  0  0
    1.6148    0.8813   -0.4381 H   0  0  0  0  0  0  0  0  0  0  0  0
   -3.7500    4.6000    2.7847 H   0  0  0  0  0  0  0  0  0  0  0  0
   -2.9385    4.8255    4.3426 H   0  0  0  0  0  0  0  0  0  0  0  0
   -4.6972    4.5779    4.2811 H   0  0  0  0  0  0  0  0  0  0  0  0
   -4.4341    2.6085    5.9328 H   0  0  0  0  0  0  0  0  0  0  0  0
   -3.3738    1.2519    5.5208 H   0  0  0  0  0  0  0  0  0  0  0  0
   -2.6675    2.8194    5.9506 H   0  0  0  0  0  0  0  0  0  0  0  0
   -5.7558    2.6562   -1.7464 H   0  0  0  0  0  0  0  0  0  0  0  0
   -7.2262    3.2090   -2.5411 H   0  0  0  0  0  0  0  0  0  0  0  0
   -6.9893    3.5316   -0.8282 H   0  0  0  0  0  0  0  0  0  0  0  0
   -9.6187    0.7792   -0.9194 H   0  0  0  0  0  0  0  0  0  0  0  0
   -9.3093    2.4508   -0.4174 H   0  0  0  0  0  0  0  0  0  0  0  0
   -9.4693    2.0591   -2.1226 H   0  0  0  0  0  0  0  0  0  0  0  0
   -7.8510   -0.4879   -2.3087 H   0  0  0  0  0  0  0  0  0  0  0  0
   -7.6017    0.8676   -3.3975 H   0  0  0  0  0  0  0  0  0  0  0  0
   -6.2267    0.1805   -2.5330 H   0  0  0  0  0  0  0  0  0  0  0  0
   -8.4074    1.8513    1.6866 H   0  0  0  0  0  0  0  0  0  0  0  0
   -6.8982    2.7776    1.5301 H   0  0  0  0  0  0  0  0  0  0  0  0
   -6.9687    1.3180    2.5433 H   0  0  0  0  0  0  0  0  0  0  0  0
   -8.5076   -0.8816    0.5904 H   0  0  0  0  0  0  0  0  0  0  0  0
   -7.0308   -1.1964    1.5073 H   0  0  0  0  0  0  0  0  0  0  0  0
   -7.0652   -1.5186   -0.2325 H   0  0  0  0  0  0  0  0  0  0  0  0
  1  2  1  6  0  0  0
  1 10  1  0  0  0  0
  1  6  1  0  0  0  0
  2  3  1  6  0  0  0
  2 11  1  0  0  0  0
  3  8  1  1  0  0  0
  4  3  1  0  0  0  0
  4  5  2  0  0  0  0
  5  1  1  0  0  0  0
  7  2  1  0  0  0  0
  9  4  1  0  0  0  0
 10 12  1  0  0  0  0
 11 12  1  0  0  0  0
 12 14  1  0  0  0  0
 13 12  1  0  0  0  0
 13 32  1  0  0  0  0
 13 31  1  0  0  0  0
 14 34  1  0  0  0  0
 14 33  1  0  0  0  0
 14 35  1  0  0  0  0
 15  5  1  0  0  0  0
 15 16  2  0  0  0  0
 17 15  1  0  0  0  0
 18 17  1  0  0  0  0
 18 27  1  0  0  0  0
 19 20  1  0  0  0  0
 19  3  1  0  0  0  0
 20 21  1  0  0  0  0
 20 22  1  0  0  0  0
 21 48  1  0  0  0  0
 21 49  1  0  0  0  0
 22 45  1  0  0  0  0
 22 47  1  0  0  0  0
 23 26  1  0  0  0  0
 23 20  1  0  0  0  0
 24 23  1  0  0  0  0
 24 38  1  0  0  0  0
 25 42  1  0  0  0  0
 25 23  1  0  0  0  0
 26 39  1  0  0  0  0
 26 40  1  0  0  0  0
 28 18  1  0  0  0  0
 29 18  1  0  0  0  0
 30 13  1  0  0  0  0
 36 24  1  0  0  0  0
 37 24  1  0  0  0  0
 41 26  1  0  0  0  0
 43 25  1  0  0  0  0
 44 25  1  0  0  0  0
 46 22  1  0  0  0  0
 50 21  1  0  0  0  0
M  END
$$$$
