
 OpenBabel11301903543D

 35 35  0  0  1  0  0  0  0  0999 V2000
   -0.6779   -3.1889   -0.7435 C   0  0  0  0  0  0  0  0  0  0  0  0
   -0.9671   -2.7131    0.5597 C   0  0  0  0  0  0  0  0  0  0  0  0
   -2.0211   -3.3292    1.2778 C   0  0  0  0  0  0  0  0  0  0  0  0
   -2.7618   -4.3856    0.7144 C   0  0  0  0  0  0  0  0  0  0  0  0
   -2.4581   -4.8428   -0.5792 C   0  0  0  0  0  0  0  0  0  0  0  0
   -1.4171   -4.2436   -1.3092 C   0  0  0  0  0  0  0  0  0  0  0  0
    0.0746   -2.7696   -1.2931 H   0  0  0  0  0  0  0  0  0  0  0  0
   -2.2504   -3.0233    2.2259 H   0  0  0  0  0  0  0  0  0  0  0  0
   -3.5172   -4.8223    1.2478 H   0  0  0  0  0  0  0  0  0  0  0  0
   -2.9963   -5.6087   -0.9903 H   0  0  0  0  0  0  0  0  0  0  0  0
   -1.2007   -4.5706   -2.2539 H   0  0  0  0  0  0  0  0  0  0  0  0
   -0.1673   -1.6139    1.1810 C   0  0  2  0  0  0  0  0  0  0  0  0
    1.1347   -2.1451    1.8764 C   0  0  1  0  0  0  0  0  0  0  0  0
    1.8510   -1.0506    2.7236 C   0  0  0  0  0  0  0  0  0  0  0  0
    2.0306   -2.8766    0.9687 N   0  0  0  0  0  0  0  0  0  0  0  0
    2.0911   -4.2797    0.9388 C   0  0  0  0  0  0  0  0  0  0  0  0
    1.3178   -5.2309    1.7927 C   0  0  0  0  0  0  0  0  0  0  0  0
    2.0008   -5.5278    3.1476 C   0  0  0  0  0  0  0  0  0  0  0  0
    2.8466   -4.8607    0.1213 O   0  0  0  0  0  0  0  0  0  0  0  0
    0.0787   -0.5839    0.2231 O   0  0  0  0  0  0  0  0  0  0  0  0
   -0.7827   -1.1325    1.9470 H   0  0  0  0  0  0  0  0  0  0  0  0
    0.4976    0.1469    0.7230 H   0  0  0  0  0  0  0  0  0  0  0  0
    0.7758   -2.8137    2.6591 H   0  0  0  0  0  0  0  0  0  0  0  0
    2.1449   -0.1956    2.1136 H   0  0  0  0  0  0  0  0  0  0  0  0
    2.7447   -1.4708    3.1938 H   0  0  0  0  0  0  0  0  0  0  0  0
    1.1886   -0.6872    3.5139 H   0  0  0  0  0  0  0  0  0  0  0  0
    1.1806   -6.1780    1.2629 H   0  0  0  0  0  0  0  0  0  0  0  0
    0.3115   -4.8648    1.9785 H   0  0  0  0  0  0  0  0  0  0  0  0
    1.3792   -6.2140    3.7277 H   0  0  0  0  0  0  0  0  0  0  0  0
    2.1264   -4.6109    3.7241 H   0  0  0  0  0  0  0  0  0  0  0  0
    2.9806   -5.9873    3.0001 H   0  0  0  0  0  0  0  0  0  0  0  0
    2.8739   -2.0949    0.0702 C   0  0  0  0  0  0  0  0  0  0  0  0
    2.2708   -1.4556   -0.5734 H   0  0  0  0  0  0  0  0  0  0  0  0
    3.5533   -1.4647    0.6444 H   0  0  0  0  0  0  0  0  0  0  0  0
    3.5021   -2.6904   -0.5943 H   0  0  0  0  0  0  0  0  0  0  0  0
  1  2  1  0  0  0  0
  2 12  1  0  0  0  0
  2  3  2  0  0  0  0
  3  8  1  0  0  0  0
  4  9  1  0  0  0  0
  4  3  1  0  0  0  0
  5  4  2  0  0  0  0
  6  1  2  0  0  0  0
  6  5  1  0  0  0  0
  7  1  1  0  0  0  0
 10  5  1  0  0  0  0
 11  6  1  0  0  0  0
 12 13  1  0  0  0  0
 12 21  1  1  0  0  0
 13 23  1  1  0  0  0
 13 14  1  0  0  0  0
 14 25  1  0  0  0  0
 14 26  1  0  0  0  0
 15 13  1  0  0  0  0
 16 15  1  0  0  0  0
 16 17  1  0  0  0  0
 17 28  1  0  0  0  0
 17 18  1  0  0  0  0
 18 30  1  0  0  0  0
 18 29  1  0  0  0  0
 19 16  2  0  0  0  0
 20 22  1  0  0  0  0
 20 12  1  0  0  0  0
 24 14  1  0  0  0  0
 27 17  1  0  0  0  0
 31 18  1  0  0  0  0
 32 34  1  0  0  0  0
 32 15  1  0  0  0  0
 33 32  1  0  0  0  0
 35 32  1  0  0  0  0
M  END
$$$$
