
 OpenBabel11301904093D

 63 65  0  0  1  0  0  0  0  0999 V2000
   -1.2191    0.5779    3.3716 C   0  0  0  0  0  0  0  0  0  0  0  0
   -1.4779    1.9689    3.3282 C   0  0  0  0  0  0  0  0  0  0  0  0
   -1.1935    2.6737    2.1353 C   0  0  0  0  0  0  0  0  0  0  0  0
   -0.6751    2.0026    1.0118 C   0  0  0  0  0  0  0  0  0  0  0  0
   -0.4145    0.6183    1.0652 C   0  0  0  0  0  0  0  0  0  0  0  0
   -0.6946   -0.0911    2.2501 C   0  0  0  0  0  0  0  0  0  0  0  0
   -2.0300    2.6787    4.5082 C   0  0  0  0  0  0  0  0  0  0  0  0
   -0.9474    3.3064    5.2249 O   0  0  0  0  0  0  0  0  0  0  0  0
   -1.3432    4.0223    6.4160 C   0  0  0  0  0  0  0  0  0  0  0  0
   -0.1126    4.3030    7.3349 C   0  0  2  0  0  0  0  0  0  0  0  0
   -0.5394    5.0259    8.6423 C   0  0  0  0  0  0  0  0  0  0  0  0
    0.7359    3.1303    7.6606 C   0  0  0  0  0  0  0  0  0  0  0  0
    0.1651    1.7734    7.7884 C   0  0  0  0  0  0  0  0  0  0  0  0
    1.0448    0.7671    8.6083 C   0  0  2  0  0  0  0  0  0  0  0  0
    0.9946    0.8326   10.1834 C   0  0  1  0  0  0  0  0  0  0  0  0
   -0.4483    0.6664   10.7555 C   0  0  0  0  0  0  0  0  0  0  0  0
    1.9541   -0.2255   10.8331 C   0  0  0  0  0  0  0  0  0  0  0  0
    3.3238   -0.0386   10.4141 O   0  0  0  0  0  0  0  0  0  0  0  0
    4.2358   -1.0751   10.8214 C   0  0  0  0  0  0  0  0  0  0  0  0
    8.1387   -0.4138    9.0950 C   0  0  0  0  0  0  0  0  0  0  0  0
    7.2231   -1.2701    8.4568 C   0  0  0  0  0  0  0  0  0  0  0  0
    5.9424   -1.4695    9.0068 C   0  0  0  0  0  0  0  0  0  0  0  0
    5.5618   -0.8205   10.2069 C   0  0  0  0  0  0  0  0  0  0  0  0
    6.4800    0.0664   10.8185 C   0  0  0  0  0  0  0  0  0  0  0  0
    7.7624    0.2623   10.2702 C   0  0  0  0  0  0  0  0  0  0  0  0
    0.0815   -0.0352   -0.0315 O   0  0  0  0  0  0  0  0  0  0  0  0
    1.5196   -0.0472   -0.0718 C   0  0  0  0  0  0  0  0  0  0  0  0
    2.3996    0.9866    8.1736 O   0  0  0  0  0  0  0  0  0  0  0  0
    2.0687    3.3028    7.8197 C   0  0  0  0  0  0  0  0  0  0  0  0
    2.9210    2.2427    8.0594 C   0  0  0  0  0  0  0  0  0  0  0  0
    4.1595    2.4015    8.1289 O   0  0  0  0  0  0  0  0  0  0  0  0
   -1.4084    0.0409    4.2222 H   0  0  0  0  0  0  0  0  0  0  0  0
   -1.3671    3.6806    2.0753 H   0  0  0  0  0  0  0  0  0  0  0  0
   -0.4851    2.5248    0.1536 H   0  0  0  0  0  0  0  0  0  0  0  0
   -0.5147   -1.0964    2.2993 H   0  0  0  0  0  0  0  0  0  0  0  0
   -2.7684    3.4198    4.1859 H   0  0  0  0  0  0  0  0  0  0  0  0
   -2.5401    1.9644    5.1621 H   0  0  0  0  0  0  0  0  0  0  0  0
   -1.7899    4.9726    6.1103 H   0  0  0  0  0  0  0  0  0  0  0  0
   -2.0980    3.4721    6.9844 H   0  0  0  0  0  0  0  0  0  0  0  0
    0.4852    5.0208    6.7615 H   0  0  0  0  0  0  0  0  0  0  0  0
    0.3396    5.3424    9.2090 H   0  0  0  0  0  0  0  0  0  0  0  0
   -1.1418    4.3671    9.2724 H   0  0  0  0  0  0  0  0  0  0  0  0
   -1.1246    5.9165    8.4063 H   0  0  0  0  0  0  0  0  0  0  0  0
   -0.8463    1.8053    8.1861 H   0  0  0  0  0  0  0  0  0  0  0  0
    0.0888    1.3737    6.7746 H   0  0  0  0  0  0  0  0  0  0  0  0
    0.7560   -0.2454    8.3118 H   0  0  0  0  0  0  0  0  0  0  0  0
    1.3515    1.8176   10.5000 H   0  0  0  0  0  0  0  0  0  0  0  0
   -0.8324   -0.3387   10.4009 H   0  0  0  0  0  0  0  0  0  0  0  0
   -0.3626    0.5504   11.8814 H   0  0  0  0  0  0  0  0  0  0  0  0
   -1.0644    1.6039   10.4107 H   0  0  0  0  0  0  0  0  0  0  0  0
    1.9230   -0.1288   11.9230 H   0  0  0  0  0  0  0  0  0  0  0  0
    1.6068   -1.2311   10.5701 H   0  0  0  0  0  0  0  0  0  0  0  0
    3.8683   -2.0561   10.5037 H   0  0  0  0  0  0  0  0  0  0  0  0
    4.3291   -1.0931   11.9114 H   0  0  0  0  0  0  0  0  0  0  0  0
    9.0767   -0.2834    8.7052 H   0  0  0  0  0  0  0  0  0  0  0  0
    7.4904   -1.7512    7.5939 H   0  0  0  0  0  0  0  0  0  0  0  0
    5.2920   -2.0975    8.5259 H   0  0  0  0  0  0  0  0  0  0  0  0
    6.2255    0.5675   11.6744 H   0  0  0  0  0  0  0  0  0  0  0  0
    8.4240    0.8939   10.7288 H   0  0  0  0  0  0  0  0  0  0  0  0
    1.9279    0.9665   -0.1088 H   0  0  0  0  0  0  0  0  0  0  0  0
    1.8277   -0.5696   -0.9776 H   0  0  0  0  0  0  0  0  0  0  0  0
    1.9379   -0.5789    0.7870 H   0  0  0  0  0  0  0  0  0  0  0  0
    2.4637    4.2118    7.7536 H   0  0  0  0  0  0  0  0  0  0  0  0
  1 32  1  0  0  0  0
  2  1  1  0  0  0  0
  2  7  1  0  0  0  0
  3  2  2  0  0  0  0
  4  5  2  0  0  0  0
  4  3  1  0  0  0  0
  5  6  1  0  0  0  0
  6 35  1  0  0  0  0
  6  1  2  0  0  0  0
  7 37  1  0  0  0  0
  7  8  1  0  0  0  0
  8  9  1  0  0  0  0
  9 39  1  0  0  0  0
  9 10  1  0  0  0  0
 10 40  1  6  0  0  0
 10 12  1  0  0  0  0
 10 11  1  0  0  0  0
 11 41  1  0  0  0  0
 11 42  1  0  0  0  0
 12 13  1  0  0  0  0
 12 29  2  0  0  0  0
 13 44  1  0  0  0  0
 13 14  1  0  0  0  0
 14 46  1  6  0  0  0
 14 15  1  0  0  0  0
 15 47  1  1  0  0  0
 15 16  1  0  0  0  0
 15 17  1  0  0  0  0
 16 49  1  0  0  0  0
 17 51  1  0  0  0  0
 18 19  1  0  0  0  0
 18 17  1  0  0  0  0
 19 54  1  0  0  0  0
 20 25  2  0  0  0  0
 21 22  2  0  0  0  0
 21 20  1  0  0  0  0
 22 23  1  0  0  0  0
 23 24  2  0  0  0  0
 23 19  1  0  0  0  0
 24 58  1  0  0  0  0
 25 59  1  0  0  0  0
 25 24  1  0  0  0  0
 26  5  1  0  0  0  0
 27 26  1  0  0  0  0
 27 62  1  0  0  0  0
 28 14  1  0  0  0  0
 29 30  1  0  0  0  0
 30 31  2  0  0  0  0
 30 28  1  0  0  0  0
 33  3  1  0  0  0  0
 34  4  1  0  0  0  0
 36  7  1  0  0  0  0
 38  9  1  0  0  0  0
 43 11  1  0  0  0  0
 45 13  1  0  0  0  0
 48 16  1  0  0  0  0
 50 16  1  0  0  0  0
 52 17  1  0  0  0  0
 53 19  1  0  0  0  0
 55 20  1  0  0  0  0
 56 21  1  0  0  0  0
 57 22  1  0  0  0  0
 60 27  1  0  0  0  0
 61 27  1  0  0  0  0
 63 29  1  0  0  0  0
M  END
$$$$
