
 OpenBabel11301904093D

 63 65  0  0  1  0  0  0  0  0999 V2000
   -1.2114    0.5785    3.3819 C   0  0  0  0  0  0  0  0  0  0  0  0
   -1.4615    1.9709    3.3470 C   0  0  0  0  0  0  0  0  0  0  0  0
   -1.1899    2.6727    2.1494 C   0  0  0  0  0  0  0  0  0  0  0  0
   -0.6795    2.0027    1.0213 C   0  0  0  0  0  0  0  0  0  0  0  0
   -0.4165    0.6195    1.0718 C   0  0  0  0  0  0  0  0  0  0  0  0
   -0.6958   -0.0903    2.2561 C   0  0  0  0  0  0  0  0  0  0  0  0
   -1.9864    2.6817    4.5402 C   0  0  0  0  0  0  0  0  0  0  0  0
   -0.8891    3.2877    5.2594 O   0  0  0  0  0  0  0  0  0  0  0  0
   -1.2781    3.9950    6.4594 C   0  0  0  0  0  0  0  0  0  0  0  0
   -0.0522    4.3194    7.3737 C   0  0  2  0  0  0  0  0  0  0  0  0
   -0.5185    5.0702    8.6535 C   0  0  0  0  0  0  0  0  0  0  0  0
    0.7844    3.1547    7.7438 C   0  0  0  0  0  0  0  0  0  0  0  0
    0.1624    1.8404    7.9462 C   0  0  0  0  0  0  0  0  0  0  0  0
    1.0416    0.7337    8.6154 C   0  0  1  0  0  0  0  0  0  0  0  0
    0.5785   -0.7238    8.2385 C   0  0  1  0  0  0  0  0  0  0  0  0
    1.5697   -1.8133    8.7538 C   0  0  0  0  0  0  0  0  0  0  0  0
   -0.8802   -1.0219    8.7255 C   0  0  0  0  0  0  0  0  0  0  0  0
   -1.8585   -0.1790    8.0689 O   0  0  0  0  0  0  0  0  0  0  0  0
   -3.1645   -0.1495    8.6782 C   0  0  0  0  0  0  0  0  0  0  0  0
   -5.6274    2.9385    6.9128 C   0  0  0  0  0  0  0  0  0  0  0  0
   -4.9556    3.1771    8.1236 C   0  0  0  0  0  0  0  0  0  0  0  0
   -4.1509    2.1725    8.6915 C   0  0  0  0  0  0  0  0  0  0  0  0
   -3.9977    0.9151    8.0576 C   0  0  0  0  0  0  0  0  0  0  0  0
   -4.6710    0.6959    6.8318 C   0  0  0  0  0  0  0  0  0  0  0  0
   -5.4828    1.6987    6.2656 C   0  0  0  0  0  0  0  0  0  0  0  0
    0.0787   -0.0327   -0.0270 O   0  0  0  0  0  0  0  0  0  0  0  0
    1.5168   -0.0465   -0.0708 C   0  0  0  0  0  0  0  0  0  0  0  0
    2.4225    0.9745    8.2848 O   0  0  0  0  0  0  0  0  0  0  0  0
    2.1172    3.3016    7.9053 C   0  0  0  0  0  0  0  0  0  0  0  0
    2.9443    2.2341    8.1912 C   0  0  0  0  0  0  0  0  0  0  0  0
    4.1789    2.3991    8.3136 O   0  0  0  0  0  0  0  0  0  0  0  0
   -1.3965    0.0390    4.2306 H   0  0  0  0  0  0  0  0  0  0  0  0
   -1.3619    3.6787    2.0886 H   0  0  0  0  0  0  0  0  0  0  0  0
   -0.4949    2.5254    0.1624 H   0  0  0  0  0  0  0  0  0  0  0  0
   -0.5195   -1.0962    2.3025 H   0  0  0  0  0  0  0  0  0  0  0  0
   -2.7137    3.4382    4.2305 H   0  0  0  0  0  0  0  0  0  0  0  0
   -2.5085    1.9689    5.1854 H   0  0  0  0  0  0  0  0  0  0  0  0
   -1.7682    4.9281    6.1671 H   0  0  0  0  0  0  0  0  0  0  0  0
   -1.9972    3.4086    7.0364 H   0  0  0  0  0  0  0  0  0  0  0  0
    0.5557    5.0234    6.7943 H   0  0  0  0  0  0  0  0  0  0  0  0
    0.3379    5.4060    9.2426 H   0  0  0  0  0  0  0  0  0  0  0  0
   -1.1403    4.4276    9.2814 H   0  0  0  0  0  0  0  0  0  0  0  0
   -1.1017    5.9505    8.3780 H   0  0  0  0  0  0  0  0  0  0  0  0
   -0.7187    1.9787    8.5748 H   0  0  0  0  0  0  0  0  0  0  0  0
   -0.1582    1.4844    6.9657 H   0  0  0  0  0  0  0  0  0  0  0  0
    0.9642    0.8534    9.7039 H   0  0  0  0  0  0  0  0  0  0  0  0
    0.5789   -0.8117    7.1484 H   0  0  0  0  0  0  0  0  0  0  0  0
    1.5659   -1.7703    9.8852 H   0  0  0  0  0  0  0  0  0  0  0  0
    1.1209   -2.8256    8.5043 H   0  0  0  0  0  0  0  0  0  0  0  0
    2.6055   -1.5996    8.2446 H   0  0  0  0  0  0  0  0  0  0  0  0
   -1.1418   -2.0616    8.5069 H   0  0  0  0  0  0  0  0  0  0  0  0
   -0.9057   -0.8829    9.8118 H   0  0  0  0  0  0  0  0  0  0  0  0
   -3.0746    0.0476    9.7508 H   0  0  0  0  0  0  0  0  0  0  0  0
   -3.6505   -1.1213    8.5628 H   0  0  0  0  0  0  0  0  0  0  0  0
   -6.2239    3.6647    6.5067 H   0  0  0  0  0  0  0  0  0  0  0  0
   -5.0538    4.0807    8.5930 H   0  0  0  0  0  0  0  0  0  0  0  0
   -3.6790    2.3697    9.5762 H   0  0  0  0  0  0  0  0  0  0  0  0
   -4.5849   -0.1987    6.3453 H   0  0  0  0  0  0  0  0  0  0  0  0
   -5.9716    1.5269    5.3834 H   0  0  0  0  0  0  0  0  0  0  0  0
    1.9253    0.9668   -0.1071 H   0  0  0  0  0  0  0  0  0  0  0  0
    1.8252   -0.5687   -0.9771 H   0  0  0  0  0  0  0  0  0  0  0  0
    1.9357   -0.5780    0.7876 H   0  0  0  0  0  0  0  0  0  0  0  0
    2.5331    4.1985    7.8053 H   0  0  0  0  0  0  0  0  0  0  0  0
  1 32  1  0  0  0  0
  2  1  1  0  0  0  0
  2  7  1  0  0  0  0
  3  2  2  0  0  0  0
  4  5  2  0  0  0  0
  4  3  1  0  0  0  0
  5  6  1  0  0  0  0
  6 35  1  0  0  0  0
  6  1  2  0  0  0  0
  7 37  1  0  0  0  0
  7  8  1  0  0  0  0
  8  9  1  0  0  0  0
  9 39  1  0  0  0  0
  9 10  1  0  0  0  0
 10 40  1  6  0  0  0
 10 12  1  0  0  0  0
 10 11  1  0  0  0  0
 11 41  1  0  0  0  0
 11 42  1  0  0  0  0
 12 29  2  0  0  0  0
 12 13  1  0  0  0  0
 13 44  1  0  0  0  0
 13 14  1  0  0  0  0
 14 46  1  1  0  0  0
 15 47  1  6  0  0  0
 15 14  1  0  0  0  0
 15 17  1  0  0  0  0
 15 16  1  0  0  0  0
 16 48  1  0  0  0  0
 17 52  1  0  0  0  0
 18 19  1  0  0  0  0
 18 17  1  0  0  0  0
 19 53  1  0  0  0  0
 20 21  2  0  0  0  0
 21 56  1  0  0  0  0
 21 22  1  0  0  0  0
 22 57  1  0  0  0  0
 23 19  1  0  0  0  0
 23 22  2  0  0  0  0
 24 23  1  0  0  0  0
 25 24  2  0  0  0  0
 25 20  1  0  0  0  0
 26  5  1  0  0  0  0
 27 26  1  0  0  0  0
 27 62  1  0  0  0  0
 28 14  1  0  0  0  0
 29 30  1  0  0  0  0
 30 28  1  0  0  0  0
 30 31  2  0  0  0  0
 33  3  1  0  0  0  0
 34  4  1  0  0  0  0
 36  7  1  0  0  0  0
 38  9  1  0  0  0  0
 43 11  1  0  0  0  0
 45 13  1  0  0  0  0
 49 16  1  0  0  0  0
 50 16  1  0  0  0  0
 51 17  1  0  0  0  0
 54 19  1  0  0  0  0
 55 20  1  0  0  0  0
 58 24  1  0  0  0  0
 59 25  1  0  0  0  0
 60 27  1  0  0  0  0
 61 27  1  0  0  0  0
 63 29  1  0  0  0  0
M  END
$$$$
