
 OpenBabel11301904093D

 63 65  0  0  1  0  0  0  0  0999 V2000
   -1.2357    0.5678    3.3550 C   0  0  0  0  0  0  0  0  0  0  0  0
   -1.4935    1.9586    3.3154 C   0  0  0  0  0  0  0  0  0  0  0  0
   -1.1987    2.6708    2.1303 C   0  0  0  0  0  0  0  0  0  0  0  0
   -0.6648    2.0078    1.0091 C   0  0  0  0  0  0  0  0  0  0  0  0
   -0.4043    0.6238    1.0590 C   0  0  0  0  0  0  0  0  0  0  0  0
   -0.6981   -0.0944    2.2357 C   0  0  0  0  0  0  0  0  0  0  0  0
   -2.0493    2.6643    4.4951 C   0  0  0  0  0  0  0  0  0  0  0  0
   -0.9569    3.2572    5.2241 O   0  0  0  0  0  0  0  0  0  0  0  0
   -1.3548    3.9690    6.4155 C   0  0  0  0  0  0  0  0  0  0  0  0
   -0.1087    4.3248    7.2803 C   0  0  2  0  0  0  0  0  0  0  0  0
   -0.5323    5.0549    8.5858 C   0  0  0  0  0  0  0  0  0  0  0  0
    0.7809    3.1774    7.5740 C   0  0  0  0  0  0  0  0  0  0  0  0
    0.2170    1.8683    7.9547 C   0  0  0  0  0  0  0  0  0  0  0  0
    1.2084    0.8979    8.6867 C   0  0  2  0  0  0  0  0  0  0  0  0
    1.1088    0.9111   10.2547 C   0  0  2  0  0  0  0  0  0  0  0  0
    1.3925    2.3172   10.8722 C   0  0  0  0  0  0  0  0  0  0  0  0
    2.0243   -0.1712   10.9070 C   0  0  0  0  0  0  0  0  0  0  0  0
    1.6312   -1.5014   10.5081 O   0  0  0  0  0  0  0  0  0  0  0  0
    2.5107   -2.5436   10.9773 C   0  0  0  0  0  0  0  0  0  0  0  0
    0.8685   -6.3706    9.8410 C   0  0  0  0  0  0  0  0  0  0  0  0
    0.4542   -5.7505   11.0327 C   0  0  0  0  0  0  0  0  0  0  0  0
    0.9885   -4.5006   11.4003 C   0  0  0  0  0  0  0  0  0  0  0  0
    1.9492   -3.8588   10.5835 C   0  0  0  0  0  0  0  0  0  0  0  0
    2.3554   -4.4932    9.3852 C   0  0  0  0  0  0  0  0  0  0  0  0
    1.8181   -5.7413    9.0167 C   0  0  0  0  0  0  0  0  0  0  0  0
    0.0953   -0.0254   -0.0386 O   0  0  0  0  0  0  0  0  0  0  0  0
    1.5336   -0.0525   -0.0806 C   0  0  0  0  0  0  0  0  0  0  0  0
    2.5667    1.1355    8.2778 O   0  0  0  0  0  0  0  0  0  0  0  0
    2.1210    3.3266    7.4599 C   0  0  0  0  0  0  0  0  0  0  0  0
    3.0058    2.2995    7.7206 C   0  0  0  0  0  0  0  0  0  0  0  0
    4.2265    2.4240    7.4798 O   0  0  0  0  0  0  0  0  0  0  0  0
   -1.4378    0.0271    4.1999 H   0  0  0  0  0  0  0  0  0  0  0  0
   -1.3772    3.6767    2.0737 H   0  0  0  0  0  0  0  0  0  0  0  0
   -0.4685    2.5360    0.1560 H   0  0  0  0  0  0  0  0  0  0  0  0
   -0.5227   -1.1008    2.2799 H   0  0  0  0  0  0  0  0  0  0  0  0
   -2.7601    3.4318    4.1709 H   0  0  0  0  0  0  0  0  0  0  0  0
   -2.5885    1.9559    5.1336 H   0  0  0  0  0  0  0  0  0  0  0  0
   -1.8640    4.8921    6.1213 H   0  0  0  0  0  0  0  0  0  0  0  0
   -2.0534    3.3760    7.0148 H   0  0  0  0  0  0  0  0  0  0  0  0
    0.4342    5.0699    6.6859 H   0  0  0  0  0  0  0  0  0  0  0  0
    0.3478    5.3560    9.1601 H   0  0  0  0  0  0  0  0  0  0  0  0
   -1.1582    4.4142    9.2110 H   0  0  0  0  0  0  0  0  0  0  0  0
   -1.0990    5.9566    8.3425 H   0  0  0  0  0  0  0  0  0  0  0  0
   -0.6815    1.9976    8.5642 H   0  0  0  0  0  0  0  0  0  0  0  0
   -0.1038    1.3844    7.0294 H   0  0  0  0  0  0  0  0  0  0  0  0
    0.9578   -0.1116    8.3461 H   0  0  0  0  0  0  0  0  0  0  0  0
    0.0783    0.6463   10.5207 H   0  0  0  0  0  0  0  0  0  0  0  0
    1.3758    2.2098   12.0019 H   0  0  0  0  0  0  0  0  0  0  0  0
    2.4645    2.5842   10.6348 H   0  0  0  0  0  0  0  0  0  0  0  0
    0.5825    3.0458   10.4412 H   0  0  0  0  0  0  0  0  0  0  0  0
    3.0664    0.0234   10.6325 H   0  0  0  0  0  0  0  0  0  0  0  0
    1.9395   -0.0998   11.9956 H   0  0  0  0  0  0  0  0  0  0  0  0
    2.6208   -2.5026   12.0659 H   0  0  0  0  0  0  0  0  0  0  0  0
    3.5059   -2.4138   10.5412 H   0  0  0  0  0  0  0  0  0  0  0  0
    0.4790   -7.2780    9.5734 H   0  0  0  0  0  0  0  0  0  0  0  0
   -0.2354   -6.2075   11.6329 H   0  0  0  0  0  0  0  0  0  0  0  0
    0.6741   -4.0654   12.2713 H   0  0  0  0  0  0  0  0  0  0  0  0
    3.0451   -4.0519    8.7718 H   0  0  0  0  0  0  0  0  0  0  0  0
    2.1181   -6.1906    8.1491 H   0  0  0  0  0  0  0  0  0  0  0  0
    1.9523    0.9562   -0.1269 H   0  0  0  0  0  0  0  0  0  0  0  0
    1.8366   -0.5851   -0.9827 H   0  0  0  0  0  0  0  0  0  0  0  0
    1.9493   -0.5817    0.7807 H   0  0  0  0  0  0  0  0  0  0  0  0
    2.4979    4.2040    7.1800 H   0  0  0  0  0  0  0  0  0  0  0  0
  1 32  1  0  0  0  0
  2  1  1  0  0  0  0
  2  7  1  0  0  0  0
  3  2  2  0  0  0  0
  4  5  2  0  0  0  0
  4  3  1  0  0  0  0
  5  6  1  0  0  0  0
  6 35  1  0  0  0  0
  6  1  2  0  0  0  0
  7 37  1  0  0  0  0
  7  8  1  0  0  0  0
  8  9  1  0  0  0  0
  9 39  1  0  0  0  0
  9 10  1  0  0  0  0
 10 40  1  6  0  0  0
 10 12  1  0  0  0  0
 10 11  1  0  0  0  0
 11 41  1  0  0  0  0
 11 42  1  0  0  0  0
 12 13  1  0  0  0  0
 13 44  1  0  0  0  0
 13 14  1  0  0  0  0
 14 46  1  6  0  0  0
 14 15  1  0  0  0  0
 15 47  1  1  0  0  0
 15 16  1  0  0  0  0
 15 17  1  0  0  0  0
 16 48  1  0  0  0  0
 17 52  1  0  0  0  0
 18 17  1  0  0  0  0
 18 19  1  0  0  0  0
 19 53  1  0  0  0  0
 20 21  2  0  0  0  0
 21 22  1  0  0  0  0
 21 56  1  0  0  0  0
 22 57  1  0  0  0  0
 23 19  1  0  0  0  0
 23 22  2  0  0  0  0
 24 23  1  0  0  0  0
 25 24  2  0  0  0  0
 25 20  1  0  0  0  0
 26  5  1  0  0  0  0
 27 26  1  0  0  0  0
 27 62  1  0  0  0  0
 28 14  1  0  0  0  0
 29 12  2  0  0  0  0
 29 30  1  0  0  0  0
 30 28  1  0  0  0  0
 31 30  2  0  0  0  0
 33  3  1  0  0  0  0
 34  4  1  0  0  0  0
 36  7  1  0  0  0  0
 38  9  1  0  0  0  0
 43 11  1  0  0  0  0
 45 13  1  0  0  0  0
 49 16  1  0  0  0  0
 50 16  1  0  0  0  0
 51 17  1  0  0  0  0
 54 19  1  0  0  0  0
 55 20  1  0  0  0  0
 58 24  1  0  0  0  0
 59 25  1  0  0  0  0
 60 27  1  0  0  0  0
 61 27  1  0  0  0  0
 63 29  1  0  0  0  0
M  END
$$$$
