
 OpenBabel11301904163D

 54 56  0  0  1  0  0  0  0  0999 V2000
   -0.8659    6.9147    2.7446 N   0  0  0  0  0  0  0  0  0  0  0  0
   -0.1365    5.8770    2.2420 C   0  0  0  0  0  0  0  0  0  0  0  0
    1.0636    5.5125    2.8964 C   0  0  0  0  0  0  0  0  0  0  0  0
    1.4688    6.2142    4.0444 C   0  0  0  0  0  0  0  0  0  0  0  0
    0.6797    7.2678    4.5360 C   0  0  0  0  0  0  0  0  0  0  0  0
   -0.5045    7.6032    3.8564 C   0  0  0  0  0  0  0  0  0  0  0  0
   -0.6015    5.1569    1.0241 C   0  0  1  0  0  0  0  0  0  0  0  0
   -0.0917    5.8408   -0.2793 C   0  0  0  0  0  0  0  0  0  0  0  0
   -0.5701    5.1346   -1.4936 N   0  0  0  0  0  0  0  0  0  0  0  0
   -2.0421    4.9603   -1.5614 C   0  0  0  0  0  0  0  0  0  0  0  0
   -2.5893    4.2035   -0.3136 C   0  0  1  0  0  0  0  0  0  0  0  0
   -2.1511    4.9904    0.9600 C   0  0  0  0  0  0  0  0  0  0  0  0
   -1.2396    8.5290    4.2644 O   0  0  0  0  0  0  0  0  0  0  0  0
   -2.1671    2.6988   -0.3219 C   0  0  0  0  0  0  0  0  0  0  0  0
   -2.3887    2.0712    1.0022 N   0  0  0  0  0  0  0  0  0  0  0  0
   -1.9362    0.6670    1.1725 C   0  0  2  0  0  0  0  0  0  0  0  0
   -0.4519    0.5965    1.1607 C   0  0  0  0  0  0  0  0  0  0  0  0
    0.2098    1.1327    2.0820 O   0  0  0  0  0  0  0  0  0  0  0  0
    0.1836   -0.0236    0.1203 O   0  0  0  0  0  0  0  0  0  0  0  0
    1.6001   -0.1243   -0.0750 C   0  0  0  0  0  0  0  0  0  0  0  0
   -2.5159    0.0911    2.5001 C   0  0  0  0  0  0  0  0  0  0  0  0
   -4.0009    0.1676    2.5690 C   0  0  0  0  0  0  0  0  0  0  0  0
   -4.6439    1.2755    3.1739 C   0  0  0  0  0  0  0  0  0  0  0  0
   -6.0484    1.3501    3.2302 C   0  0  0  0  0  0  0  0  0  0  0  0
   -6.8304    0.3153    2.6854 C   0  0  0  0  0  0  0  0  0  0  0  0
   -6.2059   -0.7908    2.0803 C   0  0  0  0  0  0  0  0  0  0  0  0
   -4.8013   -0.8611    2.0185 C   0  0  0  0  0  0  0  0  0  0  0  0
   -1.6864    7.1710    2.2948 H   0  0  0  0  0  0  0  0  0  0  0  0
    1.6436    4.7466    2.5448 H   0  0  0  0  0  0  0  0  0  0  0  0
    2.3344    5.9558    4.5222 H   0  0  0  0  0  0  0  0  0  0  0  0
    0.9648    7.7795    5.3729 H   0  0  0  0  0  0  0  0  0  0  0  0
   -0.1733    4.1504    1.0533 H   0  0  0  0  0  0  0  0  0  0  0  0
   -0.4112    6.8859   -0.3174 H   0  0  0  0  0  0  0  0  0  0  0  0
    1.0006    5.8249   -0.3000 H   0  0  0  0  0  0  0  0  0  0  0  0
   -0.2921    5.6943   -2.3027 H   0  0  0  0  0  0  0  0  0  0  0  0
   -2.5169    5.9428   -1.6408 H   0  0  0  0  0  0  0  0  0  0  0  0
   -2.2854    4.4053   -2.4694 H   0  0  0  0  0  0  0  0  0  0  0  0
   -3.6827    4.2403   -0.3534 H   0  0  0  0  0  0  0  0  0  0  0  0
   -2.6270    5.9765    0.9244 H   0  0  0  0  0  0  0  0  0  0  0  0
   -2.5183    4.4976    1.8651 H   0  0  0  0  0  0  0  0  0  0  0  0
   -1.1125    2.6114   -0.5946 H   0  0  0  0  0  0  0  0  0  0  0  0
   -2.7524    2.1685   -1.0778 H   0  0  0  0  0  0  0  0  0  0  0  0
   -3.3962    2.0962    1.1713 H   0  0  0  0  0  0  0  0  0  0  0  0
   -2.3287    0.0654    0.3459 H   0  0  0  0  0  0  0  0  0  0  0  0
    2.0644   -0.6397    0.7670 H   0  0  0  0  0  0  0  0  0  0  0  0
    1.7973   -0.6897   -0.9859 H   0  0  0  0  0  0  0  0  0  0  0  0
    2.0415    0.8681   -0.1790 H   0  0  0  0  0  0  0  0  0  0  0  0
   -2.2101   -0.9544    2.6043 H   0  0  0  0  0  0  0  0  0  0  0  0
   -2.0845    0.6248    3.3538 H   0  0  0  0  0  0  0  0  0  0  0  0
   -4.0967    2.0418    3.5736 H   0  0  0  0  0  0  0  0  0  0  0  0
   -6.5016    2.1569    3.6686 H   0  0  0  0  0  0  0  0  0  0  0  0
   -7.8516    0.3647    2.7341 H   0  0  0  0  0  0  0  0  0  0  0  0
   -6.7741   -1.5457    1.6858 H   0  0  0  0  0  0  0  0  0  0  0  0
   -4.3689   -1.6717    1.5701 H   0  0  0  0  0  0  0  0  0  0  0  0
  1  6  1  0  0  0  0
  2  1  1  0  0  0  0
  2  3  2  0  0  0  0
  3  4  1  0  0  0  0
  4 30  1  0  0  0  0
  4  5  2  0  0  0  0
  5 31  1  0  0  0  0
  6 13  2  0  0  0  0
  6  5  1  0  0  0  0
  7 32  1  1  0  0  0
  7  2  1  0  0  0  0
  8  7  1  0  0  0  0
  9  8  1  0  0  0  0
 10  9  1  0  0  0  0
 10 11  1  0  0  0  0
 11 38  1  6  0  0  0
 11 12  1  0  0  0  0
 12  7  1  0  0  0  0
 12 40  1  0  0  0  0
 14 11  1  0  0  0  0
 14 15  1  0  0  0  0
 15 43  1  0  0  0  0
 15 16  1  0  0  0  0
 16 44  1  6  0  0  0
 16 21  1  0  0  0  0
 17 16  1  0  0  0  0
 17 18  2  0  0  0  0
 19 17  1  0  0  0  0
 20 19  1  0  0  0  0
 20 45  1  0  0  0  0
 21 22  1  0  0  0  0
 21 48  1  0  0  0  0
 21 49  1  0  0  0  0
 22 23  2  0  0  0  0
 23 24  1  0  0  0  0
 23 50  1  0  0  0  0
 24 51  1  0  0  0  0
 25 52  1  0  0  0  0
 25 24  2  0  0  0  0
 26 25  1  0  0  0  0
 27 26  2  0  0  0  0
 27 22  1  0  0  0  0
 28  1  1  0  0  0  0
 29  3  1  0  0  0  0
 33  8  1  0  0  0  0
 34  8  1  0  0  0  0
 35  9  1  0  0  0  0
 36 10  1  0  0  0  0
 37 10  1  0  0  0  0
 39 12  1  0  0  0  0
 41 14  1  0  0  0  0
 42 14  1  0  0  0  0
 46 20  1  0  0  0  0
 47 20  1  0  0  0  0
 53 26  1  0  0  0  0
 54 27  1  0  0  0  0
M  END
$$$$
