
 OpenBabel11301904163D

 54 56  0  0  1  0  0  0  0  0999 V2000
    1.3197    5.3847   -3.5031 N   0  0  0  0  0  0  0  0  0  0  0  0
    1.9788    4.3341   -2.9343 C   0  0  0  0  0  0  0  0  0  0  0  0
    3.1127    3.8025   -3.5950 C   0  0  0  0  0  0  0  0  0  0  0  0
    3.5317    4.3621   -4.8128 C   0  0  0  0  0  0  0  0  0  0  0  0
    2.8202    5.4365   -5.3705 C   0  0  0  0  0  0  0  0  0  0  0  0
    1.6974    5.9374   -4.6863 C   0  0  0  0  0  0  0  0  0  0  0  0
    1.5230    3.7647   -1.6336 C   0  0  2  0  0  0  0  0  0  0  0  0
    2.1647    4.4945   -0.4184 C   0  0  0  0  0  0  0  0  0  0  0  0
    1.7994    3.8263    0.8557 N   0  0  0  0  0  0  0  0  0  0  0  0
    0.3357    3.7334    1.0797 C   0  0  0  0  0  0  0  0  0  0  0  0
   -0.3796    3.0170   -0.1048 C   0  0  1  0  0  0  0  0  0  0  0  0
   -0.0277    3.7267   -1.4461 C   0  0  0  0  0  0  0  0  0  0  0  0
    1.0438    6.8938   -5.1577 O   0  0  0  0  0  0  0  0  0  0  0  0
   -1.9101    2.8558    0.1274 C   0  0  0  0  0  0  0  0  0  0  0  0
   -2.3019    1.9714    1.2627 N   0  0  0  0  0  0  0  0  0  0  0  0
   -2.0836    0.4939    1.2020 C   0  0  1  0  0  0  0  0  0  0  0  0
   -0.6489    0.1372    1.3454 C   0  0  0  0  0  0  0  0  0  0  0  0
   -0.0561    0.4391    2.4088 O   0  0  0  0  0  0  0  0  0  0  0  0
    0.0375   -0.4625    0.3237 O   0  0  0  0  0  0  0  0  0  0  0  0
    1.4302   -0.7947    0.3129 C   0  0  0  0  0  0  0  0  0  0  0  0
   -2.8049   -0.2004    0.0023 C   0  0  0  0  0  0  0  0  0  0  0  0
   -4.2934   -0.1220    0.0850 C   0  0  0  0  0  0  0  0  0  0  0  0
   -5.0100   -1.0533    0.8744 C   0  0  0  0  0  0  0  0  0  0  0  0
   -6.4126   -0.9985    0.9639 C   0  0  0  0  0  0  0  0  0  0  0  0
   -7.1218    0.0027    0.2786 C   0  0  0  0  0  0  0  0  0  0  0  0
   -6.4280    0.9379   -0.5084 C   0  0  0  0  0  0  0  0  0  0  0  0
   -5.0256    0.8703   -0.6103 C   0  0  0  0  0  0  0  0  0  0  0  0
    0.5445    5.7522   -3.0482 H   0  0  0  0  0  0  0  0  0  0  0  0
    3.6367    3.0189   -3.1963 H   0  0  0  0  0  0  0  0  0  0  0  0
    4.3553    3.9885   -5.2891 H   0  0  0  0  0  0  0  0  0  0  0  0
    3.1203    5.8467   -6.2574 H   0  0  0  0  0  0  0  0  0  0  0  0
    1.8711    2.7253   -1.5948 H   0  0  0  0  0  0  0  0  0  0  0  0
    1.8483    5.5420   -0.3882 H   0  0  0  0  0  0  0  0  0  0  0  0
    3.2534    4.4745   -0.5089 H   0  0  0  0  0  0  0  0  0  0  0  0
    2.1877    4.3886    1.6157 H   0  0  0  0  0  0  0  0  0  0  0  0
   -0.0803    4.7350    1.2221 H   0  0  0  0  0  0  0  0  0  0  0  0
    0.1733    3.1747    2.0019 H   0  0  0  0  0  0  0  0  0  0  0  0
    0.0494    2.0267   -0.2045 H   0  0  0  0  0  0  0  0  0  0  0  0
   -0.4368    4.7416   -1.4402 H   0  0  0  0  0  0  0  0  0  0  0  0
   -0.4804    3.1829   -2.2811 H   0  0  0  0  0  0  0  0  0  0  0  0
   -2.3818    2.5215   -0.7951 H   0  0  0  0  0  0  0  0  0  0  0  0
   -2.3255    3.8411    0.3466 H   0  0  0  0  0  0  0  0  0  0  0  0
   -3.3095    2.1008    1.3801 H   0  0  0  0  0  0  0  0  0  0  0  0
   -2.5526    0.0963    2.1076 H   0  0  0  0  0  0  0  0  0  0  0  0
    1.6401   -1.5515    1.0680 H   0  0  0  0  0  0  0  0  0  0  0  0
    1.6983   -1.1922   -0.6679 H   0  0  0  0  0  0  0  0  0  0  0  0
    2.0373    0.0910    0.5111 H   0  0  0  0  0  0  0  0  0  0  0  0
   -2.4499    0.2282   -0.9358 H   0  0  0  0  0  0  0  0  0  0  0  0
   -2.5137   -1.2557   -0.0281 H   0  0  0  0  0  0  0  0  0  0  0  0
   -4.5137   -1.7831    1.3887 H   0  0  0  0  0  0  0  0  0  0  0  0
   -6.9169   -1.6853    1.5286 H   0  0  0  0  0  0  0  0  0  0  0  0
   -8.1412    0.0476    0.3489 H   0  0  0  0  0  0  0  0  0  0  0  0
   -6.9466    1.6655   -1.0050 H   0  0  0  0  0  0  0  0  0  0  0  0
   -4.5453    1.5541   -1.1947 H   0  0  0  0  0  0  0  0  0  0  0  0
  1 28  1  0  0  0  0
  1  2  1  0  0  0  0
  2  7  1  0  0  0  0
  3 29  1  0  0  0  0
  3  2  2  0  0  0  0
  4  3  1  0  0  0  0
  5  4  2  0  0  0  0
  5  6  1  0  0  0  0
  6  1  1  0  0  0  0
  7 32  1  1  0  0  0
  7 12  1  0  0  0  0
  7  8  1  0  0  0  0
  8 33  1  0  0  0  0
  8  9  1  0  0  0  0
  9 10  1  0  0  0  0
  9 35  1  0  0  0  0
 10 36  1  0  0  0  0
 10 37  1  0  0  0  0
 11 38  1  6  0  0  0
 11 14  1  0  0  0  0
 11 10  1  0  0  0  0
 12 39  1  0  0  0  0
 12 11  1  0  0  0  0
 13  6  2  0  0  0  0
 14 42  1  0  0  0  0
 14 15  1  0  0  0  0
 15 43  1  0  0  0  0
 16 15  1  0  0  0  0
 16 17  1  0  0  0  0
 16 44  1  1  0  0  0
 17 18  2  0  0  0  0
 19 17  1  0  0  0  0
 20 19  1  0  0  0  0
 20 47  1  0  0  0  0
 20 45  1  0  0  0  0
 21 22  1  0  0  0  0
 21 16  1  0  0  0  0
 22 23  2  0  0  0  0
 23 24  1  0  0  0  0
 23 50  1  0  0  0  0
 24 51  1  0  0  0  0
 25 52  1  0  0  0  0
 25 24  2  0  0  0  0
 26 25  1  0  0  0  0
 27 26  2  0  0  0  0
 27 22  1  0  0  0  0
 30  4  1  0  0  0  0
 31  5  1  0  0  0  0
 34  8  1  0  0  0  0
 40 12  1  0  0  0  0
 41 14  1  0  0  0  0
 46 20  1  0  0  0  0
 48 21  1  0  0  0  0
 49 21  1  0  0  0  0
 53 26  1  0  0  0  0
 54 27  1  0  0  0  0
M  END
$$$$
