
     RDKit          3D

 42 44  0  0  1  0  0  0  0  0999 V2000
    1.1590    0.8035   -1.4156 C   0  0  0  0  0  0  0  0  0  0  0  0
    2.4437    0.2589   -0.7933 C   0  0  0  0  0  0  0  0  0  0  0  0
    2.2075    0.2947    0.7180 C   0  0  1  0  0  0  0  0  0  0  0  0
    0.6852    0.2008    0.9265 C   0  0  1  0  0  0  0  0  0  0  0  0
    0.0151    0.3776   -0.4792 C   0  0  1  0  0  0  0  0  0  0  0  0
   -1.1448    1.4429   -0.3442 C   0  0  2  0  0  0  0  0  0  0  0  0
   -2.1615    1.0113    0.7504 C   0  0  0  0  0  0  0  0  0  0  0  0
   -2.3886   -0.5015    0.8990 C   0  0  0  0  0  0  0  0  0  0  0  0
   -1.1564   -1.3773    0.6011 C   0  0  2  0  0  0  0  0  0  0  0  0
    0.0225   -1.0418    1.5430 C   0  0  0  0  0  0  0  0  0  0  0  0
   -0.5685   -1.0704   -0.7930 C   0  0  0  0  0  0  0  0  0  0  0  0
    0.4755   -2.1585   -1.1620 C   0  0  0  0  0  0  0  0  0  0  0  0
   -1.6045   -1.1604   -1.9341 C   0  0  0  0  0  0  0  0  0  0  0  0
   -1.8158    1.5702   -1.6021 O   0  0  0  0  0  0  0  0  0  0  0  0
   -0.6744    2.8787   -0.0217 C   0  0  0  0  0  0  0  0  0  0  0  0
    0.4409    1.0276    1.6026 H   0  0  0  0  0  0  0  0  0  0  0  0
    3.0697   -0.6922    1.4875 C   0  0  0  0  0  0  0  0  0  0  0  0
    1.2569    1.8903   -1.4755 H   0  0  0  0  0  0  0  0  0  0  0  0
    1.0215    0.4474   -2.4412 H   0  0  0  0  0  0  0  0  0  0  0  0
    2.6675   -0.7493   -1.1495 H   0  0  0  0  0  0  0  0  0  0  0  0
    3.3045    0.8769   -1.0733 H   0  0  0  0  0  0  0  0  0  0  0  0
    2.5063    1.2992    1.0532 H   0  0  0  0  0  0  0  0  0  0  0  0
   -3.1333    1.4916    0.5797 H   0  0  0  0  0  0  0  0  0  0  0  0
   -1.8145    1.3774    1.7260 H   0  0  0  0  0  0  0  0  0  0  0  0
   -2.7369   -0.7032    1.9203 H   0  0  0  0  0  0  0  0  0  0  0  0
   -1.4382   -2.4314    0.7072 H   0  0  0  0  0  0  0  0  0  0  0  0
    0.7065   -1.8914    1.6123 H   0  0  0  0  0  0  0  0  0  0  0  0
   -0.3249   -0.8419    2.5631 H   0  0  0  0  0  0  0  0  0  0  0  0
    1.2815   -2.2680   -0.4368 H   0  0  0  0  0  0  0  0  0  0  0  0
    0.9255   -1.9608   -2.1411 H   0  0  0  0  0  0  0  0  0  0  0  0
   -0.0030   -3.1441   -1.2250 H   0  0  0  0  0  0  0  0  0  0  0  0
   -1.9155   -2.2002   -2.0952 H   0  0  0  0  0  0  0  0  0  0  0  0
   -1.1758   -0.7979   -2.8752 H   0  0  0  0  0  0  0  0  0  0  0  0
   -2.5641    2.1808   -1.4898 H   0  0  0  0  0  0  0  0  0  0  0  0
   -0.0321    2.9375    0.8598 H   0  0  0  0  0  0  0  0  0  0  0  0
   -0.1506    3.3347   -0.8678 H   0  0  0  0  0  0  0  0  0  0  0  0
   -1.5406    3.5277    0.1603 H   0  0  0  0  0  0  0  0  0  0  0  0
    4.1307   -0.4549    1.3530 H   0  0  0  0  0  0  0  0  0  0  0  0
    2.8506   -0.6467    2.5591 H   0  0  0  0  0  0  0  0  0  0  0  0
    2.9221   -1.7213    1.1483 H   0  0  0  0  0  0  0  0  0  0  0  0
   -2.5295   -0.6113   -1.7561 H   0  0  0  0  0  0  0  0  0  0  0  0
   -3.2193   -0.8051    0.2520 H   0  0  0  0  0  0  0  0  0  0  0  0
  1 18  1  0
  1  2  1  0
  5  1  1  6
  2  3  1  0
  2 21  1  0
  3  4  1  0
  3 22  1  1
  4  5  1  0
  4 16  1  1
  5  6  1  0
  6 14  1  6
  6 15  1  0
  6  7  1  0
  7 24  1  0
  7 23  1  0
  8  7  1  0
  8 42  1  0
  9 26  1  6
  9 10  1  0
  9  8  1  0
 10  4  1  0
 10 28  1  0
 11  5  1  0
 11  9  1  0
 12 11  1  0
 12 31  1  0
 13 32  1  0
 13 11  1  0
 14 34  1  0
 15 35  1  0
 15 37  1  0
 17 39  1  0
 17  3  1  0
 19  1  1  0
 20  2  1  0
 25  8  1  0
 27 10  1  0
 29 12  1  0
 30 12  1  0
 33 13  1  0
 36 15  1  0
 38 17  1  0
 40 17  1  0
 41 13  1  0
M  END
$$$$
