
     RDKit          3D

 42 44  0  0  1  0  0  0  0  0999 V2000
    2.3640    0.1750   -0.2246 C   0  0  2  0  0  0  0  0  0  0  0  0
    1.1672   -0.7654   -0.4761 C   0  0  1  0  0  0  0  0  0  0  0  0
   -0.4514    0.4154    0.9935 C   0  0  2  0  0  0  0  0  0  0  0  0
    0.5331    1.6370    0.9039 C   0  0  0  0  0  0  0  0  0  0  0  0
    2.0249    1.3560    0.6977 C   0  0  0  0  0  0  0  0  0  0  0  0
    0.3142   -0.9566    0.8101 C   0  0  1  0  0  0  0  0  0  0  0  0
   -0.6597   -2.1423    0.5375 C   0  0  0  0  0  0  0  0  0  0  0  0
   -1.4127   -1.9581   -0.7774 C   0  0  0  0  0  0  0  0  0  0  0  0
   -1.2630   -0.5047   -1.2396 C   0  0  2  0  0  0  0  0  0  0  0  0
    0.2245   -0.3090   -1.6294 C   0  0  0  0  0  0  0  0  0  0  0  0
    1.1313   -1.3780    2.0503 C   0  0  0  0  0  0  0  0  0  0  0  0
   -1.6474    0.4799   -0.0782 C   0  0  0  0  0  0  0  0  0  0  0  0
   -3.0171    0.0881    0.5518 C   0  0  0  0  0  0  0  0  0  0  0  0
   -1.9210    1.8809   -0.6841 C   0  0  0  0  0  0  0  0  0  0  0  0
   -1.0070    0.4406    2.3161 O   0  0  0  0  0  0  0  0  0  0  0  0
    1.5858   -1.7396   -0.7694 H   0  0  0  0  0  0  0  0  0  0  0  0
    3.0650    0.6350   -1.5058 C   0  0  0  0  0  0  0  0  0  0  0  0
    3.1187   -0.4201    0.3106 H   0  0  0  0  0  0  0  0  0  0  0  0
    0.2717    2.3028    0.0827 H   0  0  0  0  0  0  0  0  0  0  0  0
    0.4337    2.2607    1.8024 H   0  0  0  0  0  0  0  0  0  0  0  0
    2.5094    2.2745    0.3405 H   0  0  0  0  0  0  0  0  0  0  0  0
    2.4836    1.1849    1.6789 H   0  0  0  0  0  0  0  0  0  0  0  0
   -0.1082   -3.0909    0.4918 H   0  0  0  0  0  0  0  0  0  0  0  0
   -1.3648   -2.2530    1.3694 H   0  0  0  0  0  0  0  0  0  0  0  0
   -1.0055   -2.6360   -1.5385 H   0  0  0  0  0  0  0  0  0  0  0  0
   -2.4640   -2.2424   -0.6597 H   0  0  0  0  0  0  0  0  0  0  0  0
   -1.8980   -0.3345   -2.1174 H   0  0  0  0  0  0  0  0  0  0  0  0
    0.4518   -0.9005   -2.5256 H   0  0  0  0  0  0  0  0  0  0  0  0
    0.3931    0.7340   -1.9087 H   0  0  0  0  0  0  0  0  0  0  0  0
    0.4708   -1.7135    2.8587 H   0  0  0  0  0  0  0  0  0  0  0  0
    1.7419   -0.5788    2.4693 H   0  0  0  0  0  0  0  0  0  0  0  0
    1.7991   -2.2130    1.8092 H   0  0  0  0  0  0  0  0  0  0  0  0
   -3.7756   -0.0607   -0.2261 H   0  0  0  0  0  0  0  0  0  0  0  0
   -2.9782   -0.8256    1.1483 H   0  0  0  0  0  0  0  0  0  0  0  0
   -3.3857    0.8799    1.2150 H   0  0  0  0  0  0  0  0  0  0  0  0
   -2.8448    1.8748   -1.2764 H   0  0  0  0  0  0  0  0  0  0  0  0
   -2.0462    2.6338    0.1022 H   0  0  0  0  0  0  0  0  0  0  0  0
   -1.1387    2.2168   -1.3699 H   0  0  0  0  0  0  0  0  0  0  0  0
   -1.4636    1.2914    2.4318 H   0  0  0  0  0  0  0  0  0  0  0  0
    2.4773    1.3752   -2.0566 H   0  0  0  0  0  0  0  0  0  0  0  0
    3.2641   -0.2138   -2.1683 H   0  0  0  0  0  0  0  0  0  0  0  0
    4.0276    1.0999   -1.2652 H   0  0  0  0  0  0  0  0  0  0  0  0
  1  2  1  0
  1 17  1  0
  2  6  1  0
  2 10  1  0
  3  6  1  0
  3  4  1  0
  3 12  1  0
  4 20  1  0
  5  4  1  0
  5 21  1  0
  5  1  1  0
  6 11  1  1
  6  7  1  0
  7  8  1  0
  8 25  1  0
  8  9  1  0
  9 10  1  0
  9 27  1  6
 10 28  1  0
 10 29  1  0
 12  9  1  0
 12 13  1  0
 13 33  1  0
 13 35  1  0
 14 12  1  0
 14 38  1  0
  3 15  1  1
  2 16  1  6
 17 41  1  0
 17 42  1  0
  1 18  1  1
 19  4  1  0
 22  5  1  0
 23  7  1  0
 24  7  1  0
 26  8  1  0
 30 11  1  0
 31 11  1  0
 32 11  1  0
 34 13  1  0
 36 14  1  0
 37 14  1  0
 39 15  1  0
 40 17  1  0
M  END
$$$$
